# CIF file generated by openbabel 3.1.0, see https://openbabel.org
data_I
_chemical_name_common 'image0'
_cell_length_a 8.96
_cell_length_b 28.437
_cell_length_c 56.8
_cell_angle_alpha 90
_cell_angle_beta 90
_cell_angle_gamma 90
_space_group_name_H-M_alt 'P 1'
_space_group_name_Hall 'P 1'
loop_
    _symmetry_equiv_pos_as_xyz
    x,y,z
loop_
    _atom_site_label
    _atom_site_type_symbol
    _atom_site_fract_x
    _atom_site_fract_y
    _atom_site_fract_z
    _atom_site_occupancy
    C1       C        0.17600    0.03160    0.18100    1.000
    H1       H        0.24780    0.05610    0.18090    1.000
    N1       N        0.11730    0.00920    0.20137    1.000
    C2       C        0.01360    0.97450    0.19390    1.000
    H2       H        0.95760    0.95420    0.20380    1.000
    C3       C        0.00830    0.97550    0.16890    1.000
    H3       H        0.94820    0.95600    0.15920    1.000
    N2       N        0.10870    0.01070    0.16095    1.000
    C4       C        0.27740    0.06570    0.25340    1.000
    H4       H        0.30980    0.09600    0.25820    1.000
    C5       C        0.22440    0.05870    0.23065    1.000
    H5       H        0.22060    0.08420    0.21990    1.000
    C6       C        0.17710    0.01430    0.22364    1.000
    C7       C        0.18270    0.97690    0.23940    1.000
    H6       H        0.15040    0.94650    0.23460    1.000
    C8       C        0.23570    0.98390    0.26210    1.000
    H7       H        0.23960    0.95830    0.27290    1.000
    C9       C        0.28310    0.02830    0.26911    1.000
    C10      C        0.30230    0.23240    0.35090    1.000
    H8       H        0.40480    0.23670    0.34720    1.000
    C11      C        0.21180    0.26400    0.36390    1.000
    H9       H        0.24300    0.29320    0.37040    1.000
    N3       N        0.06630    0.24450    0.36548    1.000
    C12      C        0.06690    0.20080    0.35340    1.000
    H10      H        0.98430    0.18010    0.35170    1.000
    N4       N        0.21280    0.19330    0.34439    1.000
    C13      C        0.38380    0.13710    0.33333    1.000
    H11      H        0.45560    0.15110    0.34350    1.000
    C14      C        0.24080    0.15590    0.33190    1.000
    C15      C        0.13580    0.13550    0.31710    1.000
    H12      H        0.03810    0.14830    0.31610    1.000
    C16      C        0.17380    0.09640    0.30365    1.000
    H13      H        0.10200    0.08250    0.29350    1.000
    C17      C        0.31680    0.07770    0.30508    1.000
    C18      C        0.42180    0.09800    0.31990    1.000
    H14      H        0.51960    0.08530    0.32090    1.000
    C19      C        0.59600    0.86530    0.35390    1.000
    H15      H        0.50300    0.87510    0.36010    1.000
    C20      C        0.80700    0.83110    0.35050    1.000
    H16      H        0.89300    0.81270    0.35340    1.000
    C21      C        0.79300    0.86970    0.33310    1.000
    H17      H        0.86110    0.87990    0.32140    1.000
    C22      C        0.59020    0.92990    0.30177    1.000
    H18      H        0.64810    0.90840    0.29280    1.000
    C23      C        0.52000    0.96750    0.29071    1.000
    H19      H        0.53000    0.97170    0.27420    1.000
    C24      C        0.43520    0.99900    0.30381    1.000
    C25      C        0.42050    0.99290    0.32798    1.000
    H20      H        0.36260    0.01440    0.33690    1.000
    C26      C        0.49070    0.95530    0.33904    1.000
    H21      H        0.48060    0.95110    0.35560    1.000
    C27      C        0.57550    0.92380    0.32594    1.000
    N5       N        0.21260    0.97890    0.11077    1.000
    C28      C        0.11580    0.94150    0.10440    1.000
    H22      H        0.01500    0.93790    0.10930    1.000
    C29      C        0.19610    0.91030    0.08955    1.000
    N6       N        0.34250    0.92850    0.08667    1.000
    C30      C        0.35270    0.97090    0.09978    1.000
    H23      H        0.43830    0.99050    0.10100    1.000
    C31      C        0.02350    0.84480    0.09017    1.000
    H24      H        0.99120    0.85430    0.10540    1.000
    C32      C        0.95920    0.80590    0.07941    1.000
    H25      H        0.88310    0.78870    0.08730    1.000
    C33      C        0.00640    0.79200    0.05716    1.000
    C34      C        0.11780    0.81710    0.04566    1.000
    H26      H        0.15000    0.80760    0.03040    1.000
    C35      C        0.18200    0.85610    0.05641    1.000
    H27      H        0.25820    0.87320    0.04860    1.000
    C36      C        0.13490    0.86990    0.07867    1.000
    C37      C        0.75730    0.64290    0.08800    1.000
    C38      C        0.69450    0.65750    0.06600    1.000
    H28      H        0.61140    0.64070    0.05990    1.000
    C39      C        0.75040    0.69560    0.05300    1.000
    H29      H        0.69800    0.70710    0.03970    1.000
    C40      C        0.87670    0.71520    0.05970    1.000
    C41      C        0.95330    0.70070    0.07970    1.000
    H30      H        0.04350    0.71600    0.08390    1.000
    C42      C        0.89930    0.66330    0.09390    1.000
    H31      H        0.95540    0.65210    0.10690    1.000
    C43      C        0.00940    0.68870    0.99065    1.000
    H32      H        0.04250    0.65860    0.98570    1.000
    C44      C        0.99720    0.69870    0.01454    1.000
    H33      H        0.02210    0.67530    0.02590    1.000
    C45      C        0.94870    0.74270    0.02185    1.000
    C46      C        0.91230    0.77680    0.00529    1.000
    H34      H        0.87910    0.80690    0.01030    1.000
    C47      C        0.92440    0.76690    0.98141    1.000
    H35      H        0.89950    0.79020    0.97010    1.000
    C48      C        0.97290    0.72280    0.97409    1.000
    C49      C        0.91560    0.73710    0.93230    1.000
    H36      H        0.84920    0.76290    0.93410    1.000
    N7       N        0.00020    0.71570    0.95054    1.000
    C50      C        0.08470    0.67850    0.94047    1.000
    H37      H        0.15110    0.65830    0.94870    1.000
    C51      C        0.05230    0.67690    0.91601    1.000
    H38      H        0.09340    0.65550    0.90500    1.000
    N8       N        0.94790    0.71310    0.91096    1.000
    Cl1      Cl       0.34120    0.08133    0.12813    1.000
    Cl2      Cl       0.70490    0.78641    0.87460    1.000
    N9       N        0.35250    0.03480    0.29200    1.000
    N10      N        0.65970    0.88590    0.33840    1.000
    N11      N        0.66870    0.82690    0.36170    1.000
    N12      N        0.93540    0.75080    0.04620    1.000
    N13      N        0.52880    0.55820    0.11741    1.000
    C52      C        0.67220    0.53740    0.11963    1.000
    H39      H        0.69380    0.50820    0.12700    1.000
    C53      C        0.77750    0.56780    0.10880    1.000
    H40      H        0.88200    0.56250    0.10770    1.000
    N14      N        0.69920    0.60740    0.09989    1.000
    C54      C        0.54550    0.60140    0.10521    1.000
    H41      H        0.46750    0.62270    0.10130    1.000
    Zn1      Zn       0.15630    0.03105    0.12988    1.000
    Zn2      Zn       0.88020    0.73021    0.87964    1.000
    C55      C        0.32400    0.46840    0.68100    1.000
    H42      H        0.25220    0.44390    0.68090    1.000
    N15      N        0.38270    0.49080    0.70137    1.000
    C56      C        0.48640    0.52550    0.69390    1.000
    H43      H        0.54240    0.54580    0.70380    1.000
    C57      C        0.49170    0.52450    0.66890    1.000
    H44      H        0.55180    0.54400    0.65920    1.000
    N16      N        0.39130    0.48930    0.66095    1.000
    C58      C        0.22260    0.43430    0.75340    1.000
    H45      H        0.19020    0.40400    0.75820    1.000
    C59      C        0.27560    0.44130    0.73065    1.000
    H46      H        0.27940    0.41580    0.71990    1.000
    C60      C        0.32290    0.48570    0.72364    1.000
    C61      C        0.31730    0.52310    0.73940    1.000
    H47      H        0.34960    0.55350    0.73460    1.000
    C62      C        0.26430    0.51610    0.76210    1.000
    H48      H        0.26040    0.54170    0.77290    1.000
    C63      C        0.21690    0.47170    0.76911    1.000
    C64      C        0.19770    0.26760    0.85090    1.000
    H49      H        0.09520    0.26330    0.84720    1.000
    C65      C        0.28820    0.23600    0.86390    1.000
    H50      H        0.25700    0.20680    0.87040    1.000
    N17      N        0.43370    0.25550    0.86548    1.000
    C66      C        0.43310    0.29920    0.85340    1.000
    H51      H        0.51570    0.31990    0.85170    1.000
    N18      N        0.28720    0.30670    0.84439    1.000
    C67      C        0.11620    0.36290    0.83333    1.000
    H52      H        0.04440    0.34890    0.84350    1.000
    C68      C        0.25920    0.34410    0.83190    1.000
    C69      C        0.36420    0.36450    0.81710    1.000
    H53      H        0.46190    0.35170    0.81610    1.000
    C70      C        0.32620    0.40360    0.80365    1.000
    H54      H        0.39800    0.41750    0.79350    1.000
    C71      C        0.18320    0.42230    0.80508    1.000
    C72      C        0.07820    0.40200    0.81990    1.000
    H55      H        0.98040    0.41470    0.82090    1.000
    C73      C        0.90400    0.63470    0.85390    1.000
    H56      H        0.99700    0.62490    0.86010    1.000
    C74      C        0.69300    0.66890    0.85050    1.000
    H57      H        0.60700    0.68730    0.85340    1.000
    C75      C        0.70700    0.63030    0.83310    1.000
    H58      H        0.63890    0.62010    0.82140    1.000
    C76      C        0.90980    0.57010    0.80177    1.000
    H59      H        0.85190    0.59160    0.79280    1.000
    C77      C        0.98000    0.53250    0.79071    1.000
    H60      H        0.97000    0.52830    0.77420    1.000
    C78      C        0.06480    0.50100    0.80381    1.000
    C79      C        0.07950    0.50710    0.82798    1.000
    H61      H        0.13740    0.48560    0.83690    1.000
    C80      C        0.00930    0.54470    0.83904    1.000
    H62      H        0.01940    0.54890    0.85560    1.000
    C81      C        0.92450    0.57620    0.82594    1.000
    N19      N        0.28740    0.52110    0.61077    1.000
    C82      C        0.38420    0.55850    0.60440    1.000
    H63      H        0.48500    0.56210    0.60930    1.000
    C83      C        0.30390    0.58970    0.58955    1.000
    N20      N        0.15750    0.57150    0.58667    1.000
    C84      C        0.14730    0.52910    0.59978    1.000
    H64      H        0.06170    0.50950    0.60100    1.000
    C85      C        0.47650    0.65520    0.59017    1.000
    H65      H        0.50880    0.64570    0.60540    1.000
    C86      C        0.54080    0.69410    0.57941    1.000
    H66      H        0.61690    0.71130    0.58730    1.000
    C87      C        0.49360    0.70800    0.55716    1.000
    C88      C        0.38220    0.68290    0.54566    1.000
    H67      H        0.35000    0.69240    0.53040    1.000
    C89      C        0.31800    0.64390    0.55641    1.000
    H68      H        0.24180    0.62680    0.54860    1.000
    C90      C        0.36510    0.63010    0.57867    1.000
    C91      C        0.74270    0.85710    0.58800    1.000
    C92      C        0.80550    0.84250    0.56600    1.000
    H69      H        0.88860    0.85930    0.55990    1.000
    C93      C        0.74960    0.80440    0.55300    1.000
    H70      H        0.80200    0.79290    0.53970    1.000
    C94      C        0.62330    0.78480    0.55970    1.000
    C95      C        0.54670    0.79930    0.57970    1.000
    H71      H        0.45650    0.78400    0.58390    1.000
    C96      C        0.60070    0.83670    0.59390    1.000
    H72      H        0.54460    0.84790    0.60690    1.000
    C97      C        0.49060    0.81130    0.49065    1.000
    H73      H        0.45750    0.84140    0.48570    1.000
    C98      C        0.50280    0.80130    0.51454    1.000
    H74      H        0.47790    0.82470    0.52590    1.000
    C99      C        0.55130    0.75730    0.52185    1.000
    C100     C        0.58770    0.72320    0.50529    1.000
    H75      H        0.62090    0.69310    0.51030    1.000
    C101     C        0.57560    0.73310    0.48141    1.000
    H76      H        0.60050    0.70980    0.47010    1.000
    C102     C        0.52710    0.77720    0.47409    1.000
    C103     C        0.58440    0.76290    0.43230    1.000
    H77      H        0.65080    0.73710    0.43410    1.000
    N21      N        0.49980    0.78430    0.45054    1.000
    C104     C        0.41530    0.82150    0.44047    1.000
    H78      H        0.34890    0.84170    0.44870    1.000
    C105     C        0.44770    0.82310    0.41601    1.000
    H79      H        0.40660    0.84450    0.40500    1.000
    N22      N        0.55210    0.78690    0.41096    1.000
    Cl3      Cl       0.15880    0.41867    0.62813    1.000
    Cl4      Cl       0.79510    0.71359    0.37460    1.000
    N23      N        0.14750    0.46520    0.79200    1.000
    N24      N        0.84030    0.61410    0.83840    1.000
    N25      N        0.83130    0.67310    0.86170    1.000
    N26      N        0.56460    0.74920    0.54620    1.000
    N27      N        0.97120    0.94180    0.61741    1.000
    C106     C        0.82780    0.96260    0.61963    1.000
    H80      H        0.80620    0.99180    0.62700    1.000
    C107     C        0.72250    0.93220    0.60880    1.000
    H81      H        0.61800    0.93750    0.60770    1.000
    N28      N        0.80080    0.89260    0.59989    1.000
    C108     C        0.95450    0.89860    0.60521    1.000
    H82      H        0.03250    0.87730    0.60130    1.000
    Zn3      Zn       0.34370    0.46895    0.62988    1.000
    Zn4      Zn       0.61980    0.76979    0.37964    1.000
    C109     C        0.17600    0.96840    0.68100    1.000
    H83      H        0.24780    0.94390    0.68090    1.000
    N29      N        0.11730    0.99080    0.70137    1.000
    C110     C        0.01360    0.02550    0.69390    1.000
    H84      H        0.95760    0.04580    0.70380    1.000
    C111     C        0.00830    0.02450    0.66890    1.000
    H85      H        0.94820    0.04400    0.65920    1.000
    N30      N        0.10870    0.98930    0.66095    1.000
    C112     C        0.27740    0.93430    0.75340    1.000
    H86      H        0.30980    0.90400    0.75820    1.000
    C113     C        0.22440    0.94130    0.73065    1.000
    H87      H        0.22060    0.91580    0.71990    1.000
    C114     C        0.17710    0.98570    0.72364    1.000
    C115     C        0.18270    0.02310    0.73940    1.000
    H88      H        0.15040    0.05350    0.73460    1.000
    C116     C        0.23570    0.01610    0.76210    1.000
    H89      H        0.23960    0.04170    0.77290    1.000
    C117     C        0.28310    0.97170    0.76911    1.000
    C118     C        0.30230    0.76760    0.85090    1.000
    H90      H        0.40480    0.76330    0.84720    1.000
    C119     C        0.21180    0.73600    0.86390    1.000
    H91      H        0.24300    0.70680    0.87040    1.000
    N31      N        0.06630    0.75550    0.86548    1.000
    C120     C        0.06690    0.79920    0.85340    1.000
    H92      H        0.98430    0.81990    0.85170    1.000
    N32      N        0.21280    0.80670    0.84439    1.000
    C121     C        0.38380    0.86290    0.83333    1.000
    H93      H        0.45560    0.84890    0.84350    1.000
    C122     C        0.24080    0.84410    0.83190    1.000
    C123     C        0.13580    0.86450    0.81710    1.000
    H94      H        0.03810    0.85170    0.81610    1.000
    C124     C        0.17380    0.90360    0.80365    1.000
    H95      H        0.10200    0.91750    0.79350    1.000
    C125     C        0.31680    0.92230    0.80508    1.000
    C126     C        0.42180    0.90200    0.81990    1.000
    H96      H        0.51960    0.91470    0.82090    1.000
    C127     C        0.59600    0.13470    0.85390    1.000
    H97      H        0.50300    0.12490    0.86010    1.000
    C128     C        0.80700    0.16890    0.85050    1.000
    H98      H        0.89300    0.18730    0.85340    1.000
    C129     C        0.79300    0.13030    0.83310    1.000
    H99      H        0.86110    0.12010    0.82140    1.000
    C130     C        0.59020    0.07010    0.80177    1.000
    H100     H        0.64810    0.09160    0.79280    1.000
    C131     C        0.52000    0.03250    0.79071    1.000
    H101     H        0.53000    0.02830    0.77420    1.000
    C132     C        0.43520    0.00100    0.80381    1.000
    C133     C        0.42050    0.00710    0.82798    1.000
    H102     H        0.36260    0.98560    0.83690    1.000
    C134     C        0.49070    0.04470    0.83904    1.000
    H103     H        0.48060    0.04890    0.85560    1.000
    C135     C        0.57550    0.07620    0.82594    1.000
    N33      N        0.21260    0.02110    0.61077    1.000
    C136     C        0.11580    0.05850    0.60440    1.000
    H104     H        0.01500    0.06210    0.60930    1.000
    C137     C        0.19610    0.08970    0.58955    1.000
    N34      N        0.34250    0.07150    0.58667    1.000
    C138     C        0.35270    0.02910    0.59978    1.000
    H105     H        0.43830    0.00950    0.60100    1.000
    C139     C        0.02350    0.15520    0.59017    1.000
    H106     H        0.99120    0.14570    0.60540    1.000
    C140     C        0.95920    0.19410    0.57941    1.000
    H107     H        0.88310    0.21130    0.58730    1.000
    C141     C        0.00640    0.20800    0.55716    1.000
    C142     C        0.11780    0.18290    0.54566    1.000
    H108     H        0.15000    0.19240    0.53040    1.000
    C143     C        0.18200    0.14390    0.55641    1.000
    H109     H        0.25820    0.12680    0.54860    1.000
    C144     C        0.13490    0.13010    0.57867    1.000
    C145     C        0.75730    0.35710    0.58800    1.000
    C146     C        0.69450    0.34250    0.56600    1.000
    H110     H        0.61140    0.35930    0.55990    1.000
    C147     C        0.75040    0.30440    0.55300    1.000
    H111     H        0.69800    0.29290    0.53970    1.000
    C148     C        0.87670    0.28480    0.55970    1.000
    C149     C        0.95330    0.29930    0.57970    1.000
    H112     H        0.04350    0.28400    0.58390    1.000
    C150     C        0.89930    0.33670    0.59390    1.000
    H113     H        0.95540    0.34790    0.60690    1.000
    C151     C        0.00940    0.31130    0.49065    1.000
    H114     H        0.04250    0.34140    0.48570    1.000
    C152     C        0.99720    0.30130    0.51454    1.000
    H115     H        0.02210    0.32470    0.52590    1.000
    C153     C        0.94870    0.25730    0.52185    1.000
    C154     C        0.91230    0.22320    0.50529    1.000
    H116     H        0.87910    0.19310    0.51030    1.000
    C155     C        0.92440    0.23310    0.48141    1.000
    H117     H        0.89950    0.20980    0.47010    1.000
    C156     C        0.97290    0.27720    0.47409    1.000
    C157     C        0.91560    0.26290    0.43230    1.000
    H118     H        0.84920    0.23710    0.43410    1.000
    N35      N        0.00020    0.28430    0.45054    1.000
    C158     C        0.08470    0.32150    0.44047    1.000
    H119     H        0.15110    0.34170    0.44870    1.000
    C159     C        0.05230    0.32310    0.41601    1.000
    H120     H        0.09340    0.34450    0.40500    1.000
    N36      N        0.94790    0.28690    0.41096    1.000
    Cl5      Cl       0.34120    0.91867    0.62813    1.000
    Cl6      Cl       0.70490    0.21359    0.37460    1.000
    N37      N        0.35250    0.96520    0.79200    1.000
    N38      N        0.65970    0.11410    0.83840    1.000
    N39      N        0.66870    0.17310    0.86170    1.000
    N40      N        0.93540    0.24920    0.54620    1.000
    N41      N        0.52880    0.44180    0.61741    1.000
    C160     C        0.67220    0.46260    0.61963    1.000
    H121     H        0.69380    0.49180    0.62700    1.000
    C161     C        0.77750    0.43220    0.60880    1.000
    H122     H        0.88200    0.43750    0.60770    1.000
    N42      N        0.69920    0.39260    0.59989    1.000
    C162     C        0.54550    0.39860    0.60521    1.000
    H123     H        0.46750    0.37730    0.60130    1.000
    Zn5      Zn       0.15630    0.96895    0.62988    1.000
    Zn6      Zn       0.88020    0.26979    0.37964    1.000
    C163     C        0.32400    0.53160    0.18100    1.000
    H124     H        0.25220    0.55610    0.18090    1.000
    N43      N        0.38270    0.50920    0.20137    1.000
    C164     C        0.48640    0.47450    0.19390    1.000
    H125     H        0.54240    0.45420    0.20380    1.000
    C165     C        0.49170    0.47550    0.16890    1.000
    H126     H        0.55180    0.45600    0.15920    1.000
    N44      N        0.39130    0.51070    0.16095    1.000
    C166     C        0.22260    0.56570    0.25340    1.000
    H127     H        0.19020    0.59600    0.25820    1.000
    C167     C        0.27560    0.55870    0.23065    1.000
    H128     H        0.27940    0.58420    0.21990    1.000
    C168     C        0.32290    0.51430    0.22364    1.000
    C169     C        0.31730    0.47690    0.23940    1.000
    H129     H        0.34960    0.44650    0.23460    1.000
    C170     C        0.26430    0.48390    0.26210    1.000
    H130     H        0.26040    0.45830    0.27290    1.000
    C171     C        0.21690    0.52830    0.26911    1.000
    C172     C        0.19770    0.73240    0.35090    1.000
    H131     H        0.09520    0.73670    0.34720    1.000
    C173     C        0.28820    0.76400    0.36390    1.000
    H132     H        0.25700    0.79320    0.37040    1.000
    N45      N        0.43370    0.74450    0.36548    1.000
    C174     C        0.43310    0.70080    0.35340    1.000
    H133     H        0.51570    0.68010    0.35170    1.000
    N46      N        0.28720    0.69330    0.34439    1.000
    C175     C        0.11620    0.63710    0.33333    1.000
    H134     H        0.04440    0.65110    0.34350    1.000
    C176     C        0.25920    0.65590    0.33190    1.000
    C177     C        0.36420    0.63550    0.31710    1.000
    H135     H        0.46190    0.64830    0.31610    1.000
    C178     C        0.32620    0.59640    0.30365    1.000
    H136     H        0.39800    0.58250    0.29350    1.000
    C179     C        0.18320    0.57770    0.30508    1.000
    C180     C        0.07820    0.59800    0.31990    1.000
    H137     H        0.98040    0.58530    0.32090    1.000
    C181     C        0.90400    0.36530    0.35390    1.000
    H138     H        0.99700    0.37510    0.36010    1.000
    C182     C        0.69300    0.33110    0.35050    1.000
    H139     H        0.60700    0.31270    0.35340    1.000
    C183     C        0.70700    0.36970    0.33310    1.000
    H140     H        0.63890    0.37990    0.32140    1.000
    C184     C        0.90980    0.42990    0.30177    1.000
    H141     H        0.85190    0.40840    0.29280    1.000
    C185     C        0.98000    0.46750    0.29071    1.000
    H142     H        0.97000    0.47170    0.27420    1.000
    C186     C        0.06480    0.49900    0.30381    1.000
    C187     C        0.07950    0.49290    0.32798    1.000
    H143     H        0.13740    0.51440    0.33690    1.000
    C188     C        0.00930    0.45530    0.33904    1.000
    H144     H        0.01940    0.45110    0.35560    1.000
    C189     C        0.92450    0.42380    0.32594    1.000
    N47      N        0.28740    0.47890    0.11077    1.000
    C190     C        0.38420    0.44150    0.10440    1.000
    H145     H        0.48500    0.43790    0.10930    1.000
    C191     C        0.30390    0.41030    0.08955    1.000
    N48      N        0.15750    0.42850    0.08667    1.000
    C192     C        0.14730    0.47090    0.09978    1.000
    H146     H        0.06170    0.49050    0.10100    1.000
    C193     C        0.47650    0.34480    0.09017    1.000
    H147     H        0.50880    0.35430    0.10540    1.000
    C194     C        0.54080    0.30590    0.07941    1.000
    H148     H        0.61690    0.28870    0.08730    1.000
    C195     C        0.49360    0.29200    0.05716    1.000
    C196     C        0.38220    0.31710    0.04566    1.000
    H149     H        0.35000    0.30760    0.03040    1.000
    C197     C        0.31800    0.35610    0.05641    1.000
    H150     H        0.24180    0.37320    0.04860    1.000
    C198     C        0.36510    0.36990    0.07867    1.000
    C199     C        0.74270    0.14290    0.08800    1.000
    C200     C        0.80550    0.15750    0.06600    1.000
    H151     H        0.88860    0.14070    0.05990    1.000
    C201     C        0.74960    0.19560    0.05300    1.000
    H152     H        0.80200    0.20710    0.03970    1.000
    C202     C        0.62330    0.21520    0.05970    1.000
    C203     C        0.54670    0.20070    0.07970    1.000
    H153     H        0.45650    0.21600    0.08390    1.000
    C204     C        0.60070    0.16330    0.09390    1.000
    H154     H        0.54460    0.15210    0.10690    1.000
    C205     C        0.49060    0.18870    0.99065    1.000
    H155     H        0.45750    0.15860    0.98570    1.000
    C206     C        0.50280    0.19870    0.01454    1.000
    H156     H        0.47790    0.17530    0.02590    1.000
    C207     C        0.55130    0.24270    0.02185    1.000
    C208     C        0.58770    0.27680    0.00529    1.000
    H157     H        0.62090    0.30690    0.01030    1.000
    C209     C        0.57560    0.26690    0.98141    1.000
    H158     H        0.60050    0.29020    0.97010    1.000
    C210     C        0.52710    0.22280    0.97409    1.000
    C211     C        0.58440    0.23710    0.93230    1.000
    H159     H        0.65080    0.26290    0.93410    1.000
    N49      N        0.49980    0.21570    0.95054    1.000
    C212     C        0.41530    0.17850    0.94047    1.000
    H160     H        0.34890    0.15830    0.94870    1.000
    C213     C        0.44770    0.17690    0.91601    1.000
    H161     H        0.40660    0.15550    0.90500    1.000
    N50      N        0.55210    0.21310    0.91096    1.000
    Cl7      Cl       0.15880    0.58133    0.12813    1.000
    Cl8      Cl       0.79510    0.28641    0.87460    1.000
    N51      N        0.14750    0.53480    0.29200    1.000
    N52      N        0.84030    0.38590    0.33840    1.000
    N53      N        0.83130    0.32690    0.36170    1.000
    N54      N        0.56460    0.25080    0.04620    1.000
    N55      N        0.97120    0.05820    0.11741    1.000
    C214     C        0.82780    0.03740    0.11963    1.000
    H162     H        0.80620    0.00820    0.12700    1.000
    C215     C        0.72250    0.06780    0.10880    1.000
    H163     H        0.61800    0.06250    0.10770    1.000
    N56      N        0.80080    0.10740    0.09989    1.000
    C216     C        0.95450    0.10140    0.10521    1.000
    H164     H        0.03250    0.12270    0.10130    1.000
    Zn7      Zn       0.34370    0.53105    0.12988    1.000
    Zn8      Zn       0.61980    0.23021    0.87964    1.000
    C217     C        0.82400    0.03160    0.31900    1.000
    H165     H        0.75220    0.05610    0.31910    1.000
    N57      N        0.88270    0.00920    0.29863    1.000
    C218     C        0.98640    0.97450    0.30610    1.000
    H166     H        0.04240    0.95420    0.29620    1.000
    C219     C        0.99170    0.97550    0.33110    1.000
    H167     H        0.05180    0.95600    0.34080    1.000
    N58      N        0.89130    0.01070    0.33905    1.000
    C220     C        0.72260    0.06570    0.24660    1.000
    H168     H        0.69020    0.09600    0.24180    1.000
    C221     C        0.77560    0.05870    0.26935    1.000
    H169     H        0.77940    0.08420    0.28010    1.000
    C222     C        0.82290    0.01430    0.27636    1.000
    C223     C        0.81730    0.97690    0.26060    1.000
    H170     H        0.84960    0.94650    0.26540    1.000
    C224     C        0.76430    0.98390    0.23790    1.000
    H171     H        0.76040    0.95830    0.22710    1.000
    C225     C        0.71690    0.02830    0.23089    1.000
    C226     C        0.69770    0.23240    0.14910    1.000
    H172     H        0.59520    0.23670    0.15280    1.000
    C227     C        0.78820    0.26400    0.13610    1.000
    H173     H        0.75700    0.29320    0.12960    1.000
    N59      N        0.93370    0.24450    0.13452    1.000
    C228     C        0.93310    0.20080    0.14660    1.000
    H174     H        0.01570    0.18010    0.14830    1.000
    N60      N        0.78720    0.19330    0.15561    1.000
    C229     C        0.61620    0.13710    0.16667    1.000
    H175     H        0.54440    0.15110    0.15650    1.000
    C230     C        0.75920    0.15590    0.16810    1.000
    C231     C        0.86420    0.13550    0.18290    1.000
    H176     H        0.96190    0.14830    0.18390    1.000
    C232     C        0.82620    0.09640    0.19635    1.000
    H177     H        0.89800    0.08250    0.20650    1.000
    C233     C        0.68320    0.07770    0.19492    1.000
    C234     C        0.57820    0.09800    0.18010    1.000
    H178     H        0.48040    0.08530    0.17910    1.000
    C235     C        0.40400    0.86530    0.14610    1.000
    H179     H        0.49700    0.87510    0.13990    1.000
    C236     C        0.19300    0.83110    0.14950    1.000
    H180     H        0.10700    0.81270    0.14660    1.000
    C237     C        0.20700    0.86970    0.16690    1.000
    H181     H        0.13890    0.87990    0.17860    1.000
    C238     C        0.40980    0.92990    0.19823    1.000
    H182     H        0.35190    0.90840    0.20720    1.000
    C239     C        0.48000    0.96750    0.20929    1.000
    H183     H        0.47000    0.97170    0.22580    1.000
    C240     C        0.56480    0.99900    0.19619    1.000
    C241     C        0.57950    0.99290    0.17202    1.000
    H184     H        0.63740    0.01440    0.16310    1.000
    C242     C        0.50930    0.95530    0.16096    1.000
    H185     H        0.51940    0.95110    0.14440    1.000
    C243     C        0.42450    0.92380    0.17406    1.000
    N61      N        0.78740    0.97890    0.38923    1.000
    C244     C        0.88420    0.94150    0.39560    1.000
    H186     H        0.98500    0.93790    0.39070    1.000
    C245     C        0.80390    0.91030    0.41045    1.000
    N62      N        0.65750    0.92850    0.41333    1.000
    C246     C        0.64730    0.97090    0.40022    1.000
    H187     H        0.56170    0.99050    0.39900    1.000
    C247     C        0.97650    0.84480    0.40983    1.000
    H188     H        0.00880    0.85430    0.39460    1.000
    C248     C        0.04080    0.80590    0.42059    1.000
    H189     H        0.11690    0.78870    0.41270    1.000
    C249     C        0.99360    0.79200    0.44284    1.000
    C250     C        0.88220    0.81710    0.45434    1.000
    H190     H        0.85000    0.80760    0.46960    1.000
    C251     C        0.81800    0.85610    0.44359    1.000
    H191     H        0.74180    0.87320    0.45140    1.000
    C252     C        0.86510    0.86990    0.42133    1.000
    C253     C        0.24270    0.64290    0.41200    1.000
    C254     C        0.30550    0.65750    0.43400    1.000
    H192     H        0.38860    0.64070    0.44010    1.000
    C255     C        0.24960    0.69560    0.44700    1.000
    H193     H        0.30200    0.70710    0.46030    1.000
    C256     C        0.12330    0.71520    0.44030    1.000
    C257     C        0.04670    0.70070    0.42030    1.000
    H194     H        0.95650    0.71600    0.41610    1.000
    C258     C        0.10070    0.66330    0.40610    1.000
    H195     H        0.04460    0.65210    0.39310    1.000
    C259     C        0.99060    0.68870    0.50935    1.000
    H196     H        0.95750    0.65860    0.51430    1.000
    C260     C        0.00280    0.69870    0.48546    1.000
    H197     H        0.97790    0.67530    0.47410    1.000
    C261     C        0.05130    0.74270    0.47815    1.000
    C262     C        0.08770    0.77680    0.49471    1.000
    H198     H        0.12090    0.80690    0.48970    1.000
    C263     C        0.07560    0.76690    0.51859    1.000
    H199     H        0.10050    0.79020    0.52990    1.000
    C264     C        0.02710    0.72280    0.52591    1.000
    C265     C        0.08440    0.73710    0.56770    1.000
    H200     H        0.15080    0.76290    0.56590    1.000
    N63      N        0.99980    0.71570    0.54946    1.000
    C266     C        0.91530    0.67850    0.55953    1.000
    H201     H        0.84890    0.65830    0.55130    1.000
    C267     C        0.94770    0.67690    0.58399    1.000
    H202     H        0.90660    0.65550    0.59500    1.000
    N64      N        0.05210    0.71310    0.58904    1.000
    Cl9      Cl       0.65880    0.08133    0.37187    1.000
    Cl10     Cl       0.29510    0.78641    0.62540    1.000
    N65      N        0.64750    0.03480    0.20800    1.000
    N66      N        0.34030    0.88590    0.16160    1.000
    N67      N        0.33130    0.82690    0.13830    1.000
    N68      N        0.06460    0.75080    0.45380    1.000
    N69      N        0.47120    0.55820    0.38259    1.000
    C268     C        0.32780    0.53740    0.38037    1.000
    H203     H        0.30620    0.50820    0.37300    1.000
    C269     C        0.22250    0.56780    0.39120    1.000
    H204     H        0.11800    0.56250    0.39230    1.000
    N70      N        0.30080    0.60740    0.40011    1.000
    C270     C        0.45450    0.60140    0.39479    1.000
    H205     H        0.53250    0.62270    0.39870    1.000
    Zn9      Zn       0.84370    0.03105    0.37012    1.000
    Zn10     Zn       0.11980    0.73021    0.62036    1.000
    C271     C        0.67600    0.46840    0.81900    1.000
    H206     H        0.74780    0.44390    0.81910    1.000
    N71      N        0.61730    0.49080    0.79863    1.000
    C272     C        0.51360    0.52550    0.80610    1.000
    H207     H        0.45760    0.54580    0.79620    1.000
    C273     C        0.50830    0.52450    0.83110    1.000
    H208     H        0.44820    0.54400    0.84080    1.000
    N72      N        0.60870    0.48930    0.83905    1.000
    C274     C        0.77740    0.43430    0.74660    1.000
    H209     H        0.80980    0.40400    0.74180    1.000
    C275     C        0.72440    0.44130    0.76935    1.000
    H210     H        0.72060    0.41580    0.78010    1.000
    C276     C        0.67710    0.48570    0.77636    1.000
    C277     C        0.68270    0.52310    0.76060    1.000
    H211     H        0.65040    0.55350    0.76540    1.000
    C278     C        0.73570    0.51610    0.73790    1.000
    H212     H        0.73960    0.54170    0.72710    1.000
    C279     C        0.78310    0.47170    0.73089    1.000
    C280     C        0.80230    0.26760    0.64910    1.000
    H213     H        0.90480    0.26330    0.65280    1.000
    C281     C        0.71180    0.23600    0.63610    1.000
    H214     H        0.74300    0.20680    0.62960    1.000
    N73      N        0.56630    0.25550    0.63452    1.000
    C282     C        0.56690    0.29920    0.64660    1.000
    H215     H        0.48430    0.31990    0.64830    1.000
    N74      N        0.71280    0.30670    0.65561    1.000
    C283     C        0.88380    0.36290    0.66667    1.000
    H216     H        0.95560    0.34890    0.65650    1.000
    C284     C        0.74080    0.34410    0.66810    1.000
    C285     C        0.63580    0.36450    0.68290    1.000
    H217     H        0.53810    0.35170    0.68390    1.000
    C286     C        0.67380    0.40360    0.69635    1.000
    H218     H        0.60200    0.41750    0.70650    1.000
    C287     C        0.81680    0.42230    0.69492    1.000
    C288     C        0.92180    0.40200    0.68010    1.000
    H219     H        0.01960    0.41470    0.67910    1.000
    C289     C        0.09600    0.63470    0.64610    1.000
    H220     H        0.00300    0.62490    0.63990    1.000
    C290     C        0.30700    0.66890    0.64950    1.000
    H221     H        0.39300    0.68730    0.64660    1.000
    C291     C        0.29300    0.63030    0.66690    1.000
    H222     H        0.36110    0.62010    0.67860    1.000
    C292     C        0.09020    0.57010    0.69823    1.000
    H223     H        0.14810    0.59160    0.70720    1.000
    C293     C        0.02000    0.53250    0.70929    1.000
    H224     H        0.03000    0.52830    0.72580    1.000
    C294     C        0.93520    0.50100    0.69619    1.000
    C295     C        0.92050    0.50710    0.67202    1.000
    H225     H        0.86260    0.48560    0.66310    1.000
    C296     C        0.99070    0.54470    0.66096    1.000
    H226     H        0.98060    0.54890    0.64440    1.000
    C297     C        0.07550    0.57620    0.67406    1.000
    N75      N        0.71260    0.52110    0.88923    1.000
    C298     C        0.61580    0.55850    0.89560    1.000
    H227     H        0.51500    0.56210    0.89070    1.000
    C299     C        0.69610    0.58970    0.91045    1.000
    N76      N        0.84250    0.57150    0.91333    1.000
    C300     C        0.85270    0.52910    0.90022    1.000
    H228     H        0.93830    0.50950    0.89900    1.000
    C301     C        0.52350    0.65520    0.90983    1.000
    H229     H        0.49120    0.64570    0.89460    1.000
    C302     C        0.45920    0.69410    0.92059    1.000
    H230     H        0.38310    0.71130    0.91270    1.000
    C303     C        0.50640    0.70800    0.94284    1.000
    C304     C        0.61780    0.68290    0.95434    1.000
    H231     H        0.65000    0.69240    0.96960    1.000
    C305     C        0.68200    0.64390    0.94359    1.000
    H232     H        0.75820    0.62680    0.95140    1.000
    C306     C        0.63490    0.63010    0.92133    1.000
    C307     C        0.25730    0.85710    0.91200    1.000
    C308     C        0.19450    0.84250    0.93400    1.000
    H233     H        0.11140    0.85930    0.94010    1.000
    C309     C        0.25040    0.80440    0.94700    1.000
    H234     H        0.19800    0.79290    0.96030    1.000
    C310     C        0.37670    0.78480    0.94030    1.000
    C311     C        0.45330    0.79930    0.92030    1.000
    H235     H        0.54350    0.78400    0.91610    1.000
    C312     C        0.39930    0.83670    0.90610    1.000
    H236     H        0.45540    0.84790    0.89310    1.000
    C313     C        0.50940    0.81130    0.00935    1.000
    H237     H        0.54250    0.84140    0.01430    1.000
    C314     C        0.49720    0.80130    0.98546    1.000
    H238     H        0.52210    0.82470    0.97410    1.000
    C315     C        0.44870    0.75730    0.97815    1.000
    C316     C        0.41230    0.72320    0.99471    1.000
    H239     H        0.37910    0.69310    0.98970    1.000
    C317     C        0.42440    0.73310    0.01859    1.000
    H240     H        0.39950    0.70980    0.02990    1.000
    C318     C        0.47290    0.77720    0.02591    1.000
    C319     C        0.41560    0.76290    0.06770    1.000
    H241     H        0.34920    0.73710    0.06590    1.000
    N77      N        0.50020    0.78430    0.04946    1.000
    C320     C        0.58470    0.82150    0.05953    1.000
    H242     H        0.65110    0.84170    0.05130    1.000
    C321     C        0.55230    0.82310    0.08399    1.000
    H243     H        0.59340    0.84450    0.09500    1.000
    N78      N        0.44790    0.78690    0.08904    1.000
    Cl11     Cl       0.84120    0.41867    0.87187    1.000
    Cl12     Cl       0.20490    0.71359    0.12540    1.000
    N79      N        0.85250    0.46520    0.70800    1.000
    N80      N        0.15970    0.61410    0.66160    1.000
    N81      N        0.16870    0.67310    0.63830    1.000
    N82      N        0.43540    0.74920    0.95380    1.000
    N83      N        0.02880    0.94180    0.88259    1.000
    C322     C        0.17220    0.96260    0.88037    1.000
    H244     H        0.19380    0.99180    0.87300    1.000
    C323     C        0.27750    0.93220    0.89120    1.000
    H245     H        0.38200    0.93750    0.89230    1.000
    N84      N        0.19920    0.89260    0.90011    1.000
    C324     C        0.04550    0.89860    0.89479    1.000
    H246     H        0.96750    0.87730    0.89870    1.000
    Zn11     Zn       0.65630    0.46895    0.87012    1.000
    Zn12     Zn       0.38020    0.76979    0.12036    1.000
    C325     C        0.82400    0.96840    0.81900    1.000
    H247     H        0.75220    0.94390    0.81910    1.000
    N85      N        0.88270    0.99080    0.79863    1.000
    C326     C        0.98640    0.02550    0.80610    1.000
    H248     H        0.04240    0.04580    0.79620    1.000
    C327     C        0.99170    0.02450    0.83110    1.000
    H249     H        0.05180    0.04400    0.84080    1.000
    N86      N        0.89130    0.98930    0.83905    1.000
    C328     C        0.72260    0.93430    0.74660    1.000
    H250     H        0.69020    0.90400    0.74180    1.000
    C329     C        0.77560    0.94130    0.76935    1.000
    H251     H        0.77940    0.91580    0.78010    1.000
    C330     C        0.82290    0.98570    0.77636    1.000
    C331     C        0.81730    0.02310    0.76060    1.000
    H252     H        0.84960    0.05350    0.76540    1.000
    C332     C        0.76430    0.01610    0.73790    1.000
    H253     H        0.76040    0.04170    0.72710    1.000
    C333     C        0.71690    0.97170    0.73089    1.000
    C334     C        0.69770    0.76760    0.64910    1.000
    H254     H        0.59520    0.76330    0.65280    1.000
    C335     C        0.78820    0.73600    0.63610    1.000
    H255     H        0.75700    0.70680    0.62960    1.000
    N87      N        0.93370    0.75550    0.63452    1.000
    C336     C        0.93310    0.79920    0.64660    1.000
    H256     H        0.01570    0.81990    0.64830    1.000
    N88      N        0.78720    0.80670    0.65561    1.000
    C337     C        0.61620    0.86290    0.66667    1.000
    H257     H        0.54440    0.84890    0.65650    1.000
    C338     C        0.75920    0.84410    0.66810    1.000
    C339     C        0.86420    0.86450    0.68290    1.000
    H258     H        0.96190    0.85170    0.68390    1.000
    C340     C        0.82620    0.90360    0.69635    1.000
    H259     H        0.89800    0.91750    0.70650    1.000
    C341     C        0.68320    0.92230    0.69492    1.000
    C342     C        0.57820    0.90200    0.68010    1.000
    H260     H        0.48040    0.91470    0.67910    1.000
    C343     C        0.40400    0.13470    0.64610    1.000
    H261     H        0.49700    0.12490    0.63990    1.000
    C344     C        0.19300    0.16890    0.64950    1.000
    H262     H        0.10700    0.18730    0.64660    1.000
    C345     C        0.20700    0.13030    0.66690    1.000
    H263     H        0.13890    0.12010    0.67860    1.000
    C346     C        0.40980    0.07010    0.69823    1.000
    H264     H        0.35190    0.09160    0.70720    1.000
    C347     C        0.48000    0.03250    0.70929    1.000
    H265     H        0.47000    0.02830    0.72580    1.000
    C348     C        0.56480    0.00100    0.69619    1.000
    C349     C        0.57950    0.00710    0.67202    1.000
    H266     H        0.63740    0.98560    0.66310    1.000
    C350     C        0.50930    0.04470    0.66096    1.000
    H267     H        0.51940    0.04890    0.64440    1.000
    C351     C        0.42450    0.07620    0.67406    1.000
    N89      N        0.78740    0.02110    0.88923    1.000
    C352     C        0.88420    0.05850    0.89560    1.000
    H268     H        0.98500    0.06210    0.89070    1.000
    C353     C        0.80390    0.08970    0.91045    1.000
    N90      N        0.65750    0.07150    0.91333    1.000
    C354     C        0.64730    0.02910    0.90022    1.000
    H269     H        0.56170    0.00950    0.89900    1.000
    C355     C        0.97650    0.15520    0.90983    1.000
    H270     H        0.00880    0.14570    0.89460    1.000
    C356     C        0.04080    0.19410    0.92059    1.000
    H271     H        0.11690    0.21130    0.91270    1.000
    C357     C        0.99360    0.20800    0.94284    1.000
    C358     C        0.88220    0.18290    0.95434    1.000
    H272     H        0.85000    0.19240    0.96960    1.000
    C359     C        0.81800    0.14390    0.94359    1.000
    H273     H        0.74180    0.12680    0.95140    1.000
    C360     C        0.86510    0.13010    0.92133    1.000
    C361     C        0.24270    0.35710    0.91200    1.000
    C362     C        0.30550    0.34250    0.93400    1.000
    H274     H        0.38860    0.35930    0.94010    1.000
    C363     C        0.24960    0.30440    0.94700    1.000
    H275     H        0.30200    0.29290    0.96030    1.000
    C364     C        0.12330    0.28480    0.94030    1.000
    C365     C        0.04670    0.29930    0.92030    1.000
    H276     H        0.95650    0.28400    0.91610    1.000
    C366     C        0.10070    0.33670    0.90610    1.000
    H277     H        0.04460    0.34790    0.89310    1.000
    C367     C        0.99060    0.31130    0.00935    1.000
    H278     H        0.95750    0.34140    0.01430    1.000
    C368     C        0.00280    0.30130    0.98546    1.000
    H279     H        0.97790    0.32470    0.97410    1.000
    C369     C        0.05130    0.25730    0.97815    1.000
    C370     C        0.08770    0.22320    0.99471    1.000
    H280     H        0.12090    0.19310    0.98970    1.000
    C371     C        0.07560    0.23310    0.01859    1.000
    H281     H        0.10050    0.20980    0.02990    1.000
    C372     C        0.02710    0.27720    0.02591    1.000
    C373     C        0.08440    0.26290    0.06770    1.000
    H282     H        0.15080    0.23710    0.06590    1.000
    N91      N        0.99980    0.28430    0.04946    1.000
    C374     C        0.91530    0.32150    0.05953    1.000
    H283     H        0.84890    0.34170    0.05130    1.000
    C375     C        0.94770    0.32310    0.08399    1.000
    H284     H        0.90660    0.34450    0.09500    1.000
    N92      N        0.05210    0.28690    0.08904    1.000
    Cl13     Cl       0.65880    0.91867    0.87187    1.000
    Cl14     Cl       0.29510    0.21359    0.12540    1.000
    N93      N        0.64750    0.96520    0.70800    1.000
    N94      N        0.34030    0.11410    0.66160    1.000
    N95      N        0.33130    0.17310    0.63830    1.000
    N96      N        0.06460    0.24920    0.95380    1.000
    N97      N        0.47120    0.44180    0.88259    1.000
    C376     C        0.32780    0.46260    0.88037    1.000
    H285     H        0.30620    0.49180    0.87300    1.000
    C377     C        0.22250    0.43220    0.89120    1.000
    H286     H        0.11800    0.43750    0.89230    1.000
    N98      N        0.30080    0.39260    0.90011    1.000
    C378     C        0.45450    0.39860    0.89479    1.000
    H287     H        0.53250    0.37730    0.89870    1.000
    Zn13     Zn       0.84370    0.96895    0.87012    1.000
    Zn14     Zn       0.11980    0.26979    0.12036    1.000
    C379     C        0.67600    0.53160    0.31900    1.000
    H288     H        0.74780    0.55610    0.31910    1.000
    N99      N        0.61730    0.50920    0.29863    1.000
    C380     C        0.51360    0.47450    0.30610    1.000
    H289     H        0.45760    0.45420    0.29620    1.000
    C381     C        0.50830    0.47550    0.33110    1.000
    H290     H        0.44820    0.45600    0.34080    1.000
    N100     N        0.60870    0.51070    0.33905    1.000
    C382     C        0.77740    0.56570    0.24660    1.000
    H291     H        0.80980    0.59600    0.24180    1.000
    C383     C        0.72440    0.55870    0.26935    1.000
    H292     H        0.72060    0.58420    0.28010    1.000
    C384     C        0.67710    0.51430    0.27636    1.000
    C385     C        0.68270    0.47690    0.26060    1.000
    H293     H        0.65040    0.44650    0.26540    1.000
    C386     C        0.73570    0.48390    0.23790    1.000
    H294     H        0.73960    0.45830    0.22710    1.000
    C387     C        0.78310    0.52830    0.23089    1.000
    C388     C        0.80230    0.73240    0.14910    1.000
    H295     H        0.90480    0.73670    0.15280    1.000
    C389     C        0.71180    0.76400    0.13610    1.000
    H296     H        0.74300    0.79320    0.12960    1.000
    N101     N        0.56630    0.74450    0.13452    1.000
    C390     C        0.56690    0.70080    0.14660    1.000
    H297     H        0.48430    0.68010    0.14830    1.000
    N102     N        0.71280    0.69330    0.15561    1.000
    C391     C        0.88380    0.63710    0.16667    1.000
    H298     H        0.95560    0.65110    0.15650    1.000
    C392     C        0.74080    0.65590    0.16810    1.000
    C393     C        0.63580    0.63550    0.18290    1.000
    H299     H        0.53810    0.64830    0.18390    1.000
    C394     C        0.67380    0.59640    0.19635    1.000
    H300     H        0.60200    0.58250    0.20650    1.000
    C395     C        0.81680    0.57770    0.19492    1.000
    C396     C        0.92180    0.59800    0.18010    1.000
    H301     H        0.01960    0.58530    0.17910    1.000
    C397     C        0.09600    0.36530    0.14610    1.000
    H302     H        0.00300    0.37510    0.13990    1.000
    C398     C        0.30700    0.33110    0.14950    1.000
    H303     H        0.39300    0.31270    0.14660    1.000
    C399     C        0.29300    0.36970    0.16690    1.000
    H304     H        0.36110    0.37990    0.17860    1.000
    C400     C        0.09020    0.42990    0.19823    1.000
    H305     H        0.14810    0.40840    0.20720    1.000
    C401     C        0.02000    0.46750    0.20929    1.000
    H306     H        0.03000    0.47170    0.22580    1.000
    C402     C        0.93520    0.49900    0.19619    1.000
    C403     C        0.92050    0.49290    0.17202    1.000
    H307     H        0.86260    0.51440    0.16310    1.000
    C404     C        0.99070    0.45530    0.16096    1.000
    H308     H        0.98060    0.45110    0.14440    1.000
    C405     C        0.07550    0.42380    0.17406    1.000
    N103     N        0.71260    0.47890    0.38923    1.000
    C406     C        0.61580    0.44150    0.39560    1.000
    H309     H        0.51500    0.43790    0.39070    1.000
    C407     C        0.69610    0.41030    0.41045    1.000
    N104     N        0.84250    0.42850    0.41333    1.000
    C408     C        0.85270    0.47090    0.40022    1.000
    H310     H        0.93830    0.49050    0.39900    1.000
    C409     C        0.52350    0.34480    0.40983    1.000
    H311     H        0.49120    0.35430    0.39460    1.000
    C410     C        0.45920    0.30590    0.42059    1.000
    H312     H        0.38310    0.28870    0.41270    1.000
    C411     C        0.50640    0.29200    0.44284    1.000
    C412     C        0.61780    0.31710    0.45434    1.000
    H313     H        0.65000    0.30760    0.46960    1.000
    C413     C        0.68200    0.35610    0.44359    1.000
    H314     H        0.75820    0.37320    0.45140    1.000
    C414     C        0.63490    0.36990    0.42133    1.000
    C415     C        0.25730    0.14290    0.41200    1.000
    C416     C        0.19450    0.15750    0.43400    1.000
    H315     H        0.11140    0.14070    0.44010    1.000
    C417     C        0.25040    0.19560    0.44700    1.000
    H316     H        0.19800    0.20710    0.46030    1.000
    C418     C        0.37670    0.21520    0.44030    1.000
    C419     C        0.45330    0.20070    0.42030    1.000
    H317     H        0.54350    0.21600    0.41610    1.000
    C420     C        0.39930    0.16330    0.40610    1.000
    H318     H        0.45540    0.15210    0.39310    1.000
    C421     C        0.50940    0.18870    0.50935    1.000
    H319     H        0.54250    0.15860    0.51430    1.000
    C422     C        0.49720    0.19870    0.48546    1.000
    H320     H        0.52210    0.17530    0.47410    1.000
    C423     C        0.44870    0.24270    0.47815    1.000
    C424     C        0.41230    0.27680    0.49471    1.000
    H321     H        0.37910    0.30690    0.48970    1.000
    C425     C        0.42440    0.26690    0.51859    1.000
    H322     H        0.39950    0.29020    0.52990    1.000
    C426     C        0.47290    0.22280    0.52591    1.000
    C427     C        0.41560    0.23710    0.56770    1.000
    H323     H        0.34920    0.26290    0.56590    1.000
    N105     N        0.50020    0.21570    0.54946    1.000
    C428     C        0.58470    0.17850    0.55953    1.000
    H324     H        0.65110    0.15830    0.55130    1.000
    C429     C        0.55230    0.17690    0.58399    1.000
    H325     H        0.59340    0.15550    0.59500    1.000
    N106     N        0.44790    0.21310    0.58904    1.000
    Cl15     Cl       0.84120    0.58133    0.37187    1.000
    Cl16     Cl       0.20490    0.28641    0.62540    1.000
    N107     N        0.85250    0.53480    0.20800    1.000
    N108     N        0.15970    0.38590    0.16160    1.000
    N109     N        0.16870    0.32690    0.13830    1.000
    N110     N        0.43540    0.25080    0.45380    1.000
    N111     N        0.02880    0.05820    0.38259    1.000
    C430     C        0.17220    0.03740    0.38037    1.000
    H326     H        0.19380    0.00820    0.37300    1.000
    C431     C        0.27750    0.06780    0.39120    1.000
    H327     H        0.38200    0.06250    0.39230    1.000
    N112     N        0.19920    0.10740    0.40011    1.000
    C432     C        0.04550    0.10140    0.39479    1.000
    H328     H        0.96750    0.12270    0.39870    1.000
    Zn15     Zn       0.65630    0.53105    0.37012    1.000
    Zn16     Zn       0.38020    0.23021    0.62036    1.000
