# CIF file generated by openbabel 3.1.0, see https://openbabel.org
data_I
_chemical_name_common 'image0'
_cell_length_a 14.0147
_cell_length_b 18.3152
_cell_length_c 7.863
_cell_angle_alpha 90
_cell_angle_beta 105.464
_cell_angle_gamma 90
_space_group_name_H-M_alt 'P 1'
_space_group_name_Hall 'P 1'
loop_
    _symmetry_equiv_pos_as_xyz
    x,y,z
loop_
    _atom_site_label
    _atom_site_type_symbol
    _atom_site_fract_x
    _atom_site_fract_y
    _atom_site_fract_z
    _atom_site_occupancy
    Cd1      Cd       0.81811    0.44108    0.22793    1.000
    C1       C        0.86320    0.68750    0.22230    1.000
    C2       C        0.93270    0.73920    0.21170    1.000
    H1       H        0.99260    0.72520    0.19210    1.000
    C3       C        0.91230    0.81310    0.23060    1.000
    C4       C        0.82220    0.83400    0.25140    1.000
    H2       H        0.80840    0.88340    0.25840    1.000
    C5       C        0.75040    0.78210    0.26210    1.000
    C6       C        0.77370    0.70840    0.24950    1.000
    H3       H        0.72820    0.67280    0.25950    1.000
    C7       C        0.88530    0.60710    0.19640    1.000
    C8       C        0.99160    0.86850    0.23540    1.000
    C9       C        0.65090    0.80520    0.27850    1.000
    C10      C        0.63900    0.86970    0.36680    1.000
    H4       H        0.69440    0.89730    0.42110    1.000
    C11      C        0.54730    0.89260    0.37480    1.000
    H5       H        0.54130    0.93570    0.43380    1.000
    C12      C        0.46280    0.85230    0.29550    1.000
    C13      C        0.47640    0.78660    0.21150    1.000
    H6       H        0.42180    0.75730    0.16290    1.000
    C14      C        0.56690    0.76500    0.19930    1.000
    H7       H        0.57260    0.72280    0.13720    1.000
    C15      C        0.36260    0.87910    0.29840    1.000
    O1       O        0.82680    0.56190    0.22900    1.000
    O2       O        0.95840    0.59380    0.14110    1.000
    O3       O        0.07720    0.84490    0.23720    1.000
    O4       O        0.97380    0.93520    0.24320    1.000
    O5       O        0.35220    0.93990    0.35320    1.000
    O6       O        0.29040    0.84160    0.23520    1.000
    Cd2      Cd       0.18189    0.94108    0.27207    1.000
    C16      C        0.13680    0.18750    0.27770    1.000
    C17      C        0.06730    0.23920    0.28830    1.000
    H8       H        0.00740    0.22520    0.30790    1.000
    C18      C        0.08770    0.31310    0.26940    1.000
    C19      C        0.17780    0.33400    0.24860    1.000
    H9       H        0.19160    0.38340    0.24160    1.000
    C20      C        0.24960    0.28210    0.23790    1.000
    C21      C        0.22630    0.20840    0.25050    1.000
    H10      H        0.27180    0.17280    0.24050    1.000
    C22      C        0.11470    0.10710    0.30360    1.000
    C23      C        0.00840    0.36850    0.26460    1.000
    C24      C        0.34910    0.30520    0.22150    1.000
    C25      C        0.36100    0.36970    0.13320    1.000
    H11      H        0.30560    0.39730    0.07890    1.000
    C26      C        0.45270    0.39260    0.12520    1.000
    H12      H        0.45870    0.43570    0.06620    1.000
    C27      C        0.53720    0.35230    0.20450    1.000
    C28      C        0.52360    0.28660    0.28850    1.000
    H13      H        0.57820    0.25730    0.33710    1.000
    C29      C        0.43310    0.26500    0.30070    1.000
    H14      H        0.42740    0.22280    0.36280    1.000
    C30      C        0.63740    0.37910    0.20160    1.000
    O7       O        0.17320    0.06190    0.27100    1.000
    O8       O        0.04160    0.09380    0.35890    1.000
    O9       O        0.92280    0.34490    0.26280    1.000
    O10      O        0.02620    0.43520    0.25680    1.000
    O11      O        0.64780    0.43990    0.14680    1.000
    O12      O        0.70960    0.34160    0.26480    1.000
    Cd3      Cd       0.18189    0.55892    0.77207    1.000
    C31      C        0.13680    0.31250    0.77770    1.000
    C32      C        0.06730    0.26080    0.78830    1.000
    H15      H        0.00740    0.27480    0.80790    1.000
    C33      C        0.08770    0.18690    0.76940    1.000
    C34      C        0.17780    0.16600    0.74860    1.000
    H16      H        0.19160    0.11660    0.74160    1.000
    C35      C        0.24960    0.21790    0.73790    1.000
    C36      C        0.22630    0.29160    0.75050    1.000
    H17      H        0.27180    0.32720    0.74050    1.000
    C37      C        0.11470    0.39290    0.80360    1.000
    C38      C        0.00840    0.13150    0.76460    1.000
    C39      C        0.34910    0.19480    0.72150    1.000
    C40      C        0.36100    0.13030    0.63320    1.000
    H18      H        0.30560    0.10270    0.57890    1.000
    C41      C        0.45270    0.10740    0.62520    1.000
    H19      H        0.45870    0.06430    0.56620    1.000
    C42      C        0.53720    0.14770    0.70450    1.000
    C43      C        0.52360    0.21340    0.78850    1.000
    H20      H        0.57820    0.24270    0.83710    1.000
    C44      C        0.43310    0.23500    0.80070    1.000
    H21      H        0.42740    0.27720    0.86280    1.000
    C45      C        0.63740    0.12090    0.70160    1.000
    O13      O        0.17320    0.43810    0.77100    1.000
    O14      O        0.04160    0.40620    0.85890    1.000
    O15      O        0.92280    0.15510    0.76280    1.000
    O16      O        0.02620    0.06480    0.75680    1.000
    O17      O        0.64780    0.06010    0.64680    1.000
    O18      O        0.70960    0.15840    0.76480    1.000
    Cd4      Cd       0.81811    0.05892    0.72793    1.000
    C46      C        0.86320    0.81250    0.72230    1.000
    C47      C        0.93270    0.76080    0.71170    1.000
    H22      H        0.99260    0.77480    0.69210    1.000
    C48      C        0.91230    0.68690    0.73060    1.000
    C49      C        0.82220    0.66600    0.75140    1.000
    H23      H        0.80840    0.61660    0.75840    1.000
    C50      C        0.75040    0.71790    0.76210    1.000
    C51      C        0.77370    0.79160    0.74950    1.000
    H24      H        0.72820    0.82720    0.75950    1.000
    C52      C        0.88530    0.89290    0.69640    1.000
    C53      C        0.99160    0.63150    0.73540    1.000
    C54      C        0.65090    0.69480    0.77850    1.000
    C55      C        0.63900    0.63030    0.86680    1.000
    H25      H        0.69440    0.60270    0.92110    1.000
    C56      C        0.54730    0.60740    0.87480    1.000
    H26      H        0.54130    0.56430    0.93380    1.000
    C57      C        0.46280    0.64770    0.79550    1.000
    C58      C        0.47640    0.71340    0.71150    1.000
    H27      H        0.42180    0.74270    0.66290    1.000
    C59      C        0.56690    0.73500    0.69930    1.000
    H28      H        0.57260    0.77720    0.63720    1.000
    C60      C        0.36260    0.62090    0.79840    1.000
    O19      O        0.82680    0.93810    0.72900    1.000
    O20      O        0.95840    0.90620    0.64110    1.000
    O21      O        0.07720    0.65510    0.73720    1.000
    O22      O        0.97380    0.56480    0.74320    1.000
    O23      O        0.35220    0.56010    0.85320    1.000
    O24      O        0.29040    0.65840    0.73520    1.000
    Cd5      Cd       0.00000    0.50000    0.00000    1.000
    Cd6      Cd       0.00000    0.00000    0.50000    1.000
