# CIF file generated by openbabel 3.1.0, see https://openbabel.org
data_I
_chemical_name_common 'image0'
_cell_length_a 35.7507
_cell_length_b 16.3257
_cell_length_c 13.1559
_cell_angle_alpha 90
_cell_angle_beta 90
_cell_angle_gamma 90
_space_group_name_H-M_alt 'P 1'
_space_group_name_Hall 'P 1'
loop_
    _symmetry_equiv_pos_as_xyz
    x,y,z
loop_
    _atom_site_label
    _atom_site_type_symbol
    _atom_site_fract_x
    _atom_site_fract_y
    _atom_site_fract_z
    _atom_site_occupancy
    C1       C        0.74950    0.32540    0.87970    1.000
    C2       C        0.78992    0.22960    0.79530    1.000
    H1       H        0.79600    0.19950    0.73750    1.000
    C3       C        0.65139    0.43210    0.13510    1.000
    C4       C        0.81285    0.22400    0.88270    1.000
    O1       O        0.61169    0.73600    0.27940    1.000
    H2       H        0.60280    0.74890    0.22420    1.000
    C5       C        0.80192    0.26610    0.96870    1.000
    H3       H        0.81570    0.26030    0.02820    1.000
    O2       O        0.53534    0.55220    0.48720    1.000
    C6       C        0.84810    0.17500    0.87840    1.000
    C7       C        0.66714    0.45790    0.65320    1.000
    H4       H        0.64360    0.45250    0.62370    1.000
    C8       C        0.65845    0.65450    0.35450    1.000
    C9       C        0.85493    0.11850    0.80140    1.000
    H5       H        0.83680    0.10960    0.75180    1.000
    C10      C        0.58093    0.47640    0.39120    1.000
    C11      C        0.91497    0.08570    0.86970    1.000
    C12      C        0.71089    0.42040    0.78310    1.000
    C13      C        0.68245    0.55880    0.51890    1.000
    O3       O        0.66271    0.70770    0.18620    1.000
    C14      C        0.75862    0.27910    0.79450    1.000
    H6       H        0.74360    0.28150    0.73690    1.000
    C15      C        0.68595    0.33440    0.02980    1.000
    H7       H        0.69390    0.28090    0.01850    1.000
    C16      C        0.69397    0.62090    0.35420    1.000
    H8       H        0.70990    0.62940    0.29930    1.000
    C17      C        0.69658    0.39590    0.96290    1.000
    C18      C        0.60979    0.41920    0.39640    1.000
    H9       H        0.61360    0.38980    0.45610    1.000
    C19      C        0.77073    0.31690    0.96820    1.000
    H10      H        0.76400    0.34520    0.02680    1.000
    C20      C        0.72964    0.50900    0.64560    1.000
    H11      H        0.74820    0.53850    0.61240    1.000
    C21      C        0.88822    0.07540    0.79740    1.000
    H12      H        0.89240    0.03880    0.74440    1.000
    C22      C        0.64689    0.59610    0.51880    1.000
    H13      H        0.63090    0.58900    0.57380    1.000
    C23      C        0.64523    0.70100    0.26530    1.000
    C24      C        0.70573    0.57450    0.43650    1.000
    H14      H        0.72990    0.55320    0.43660    1.000
    C25      C        0.66352    0.35190    0.11360    1.000
    H15      H        0.65640    0.30940    0.15650    1.000
    N1       N        0.71864    0.37920    0.87730    1.000
    C26      C        0.67506    0.41570    0.74190    1.000
    H16      H        0.65670    0.38460    0.77360    1.000
    C27      C        0.63572    0.64340    0.43690    1.000
    H17      H        0.61230    0.66820    0.43790    1.000
    C28      C        0.73840    0.46610    0.73360    1.000
    H18      H        0.76260    0.46790    0.75960    1.000
    C29      C        0.62729    0.44850    0.22390    1.000
    C30      C        0.68465    0.47660    0.98170    1.000
    H19      H        0.69190    0.51860    0.93820    1.000
    C31      C        0.87535    0.18470    0.95370    1.000
    H20      H        0.87150    0.22130    0.00690    1.000
    C32      C        0.63277    0.40600    0.31330    1.000
    H21      H        0.65210    0.36800    0.31780    1.000
    O4       O        0.95678    0.99490    0.78330    1.000
    C33      C        0.90829    0.13920    0.94860    1.000
    H22      H        0.92610    0.14510    0.99950    1.000
    C34      C        0.69377    0.50840    0.60670    1.000
    C35      C        0.57562    0.52040    0.30270    1.000
    H23      H        0.55670    0.55940    0.29910    1.000
    O5       O        0.97177    0.04320    0.93980    1.000
    C36      C        0.59870    0.50630    0.21760    1.000
    H24      H        0.59490    0.53540    0.15770    1.000
    C37      C        0.94995    0.03820    0.86160    1.000
    C38      C        0.66180    0.49390    0.06590    1.000
    H25      H        0.65350    0.54720    0.07630    1.000
    O6       O        0.55653    0.44020    0.55560    1.000
    C39      C        0.55600    0.49090    0.48140    1.000
    C40      C        0.25050    0.67460    0.87970    1.000
    C41      C        0.21008    0.77040    0.79530    1.000
    H26      H        0.20400    0.80050    0.73750    1.000
    C42      C        0.34861    0.56790    0.13510    1.000
    C43      C        0.18715    0.77600    0.88270    1.000
    O7       O        0.38831    0.26400    0.27940    1.000
    H27      H        0.39720    0.25110    0.22420    1.000
    C44      C        0.19808    0.73390    0.96870    1.000
    H28      H        0.18430    0.73970    0.02820    1.000
    O8       O        0.46466    0.44780    0.48720    1.000
    C45      C        0.15190    0.82500    0.87840    1.000
    C46      C        0.33286    0.54210    0.65320    1.000
    H29      H        0.35640    0.54750    0.62370    1.000
    C47      C        0.34155    0.34550    0.35450    1.000
    C48      C        0.14507    0.88150    0.80140    1.000
    H30      H        0.16320    0.89040    0.75180    1.000
    C49      C        0.41907    0.52360    0.39120    1.000
    C50      C        0.08503    0.91430    0.86970    1.000
    C51      C        0.28911    0.57960    0.78310    1.000
    C52      C        0.31755    0.44120    0.51890    1.000
    O9       O        0.33729    0.29230    0.18620    1.000
    C53      C        0.24138    0.72090    0.79450    1.000
    H31      H        0.25640    0.71850    0.73690    1.000
    C54      C        0.31405    0.66560    0.02980    1.000
    H32      H        0.30610    0.71910    0.01850    1.000
    C55      C        0.30603    0.37910    0.35420    1.000
    H33      H        0.29010    0.37060    0.29930    1.000
    C56      C        0.30342    0.60410    0.96290    1.000
    C57      C        0.39021    0.58080    0.39640    1.000
    H34      H        0.38640    0.61020    0.45610    1.000
    C58      C        0.22927    0.68310    0.96820    1.000
    H35      H        0.23600    0.65480    0.02680    1.000
    C59      C        0.27036    0.49100    0.64560    1.000
    H36      H        0.25180    0.46150    0.61240    1.000
    C60      C        0.11178    0.92460    0.79740    1.000
    H37      H        0.10760    0.96120    0.74440    1.000
    C61      C        0.35311    0.40390    0.51880    1.000
    H38      H        0.36910    0.41100    0.57380    1.000
    C62      C        0.35477    0.29900    0.26530    1.000
    C63      C        0.29427    0.42550    0.43650    1.000
    H39      H        0.27010    0.44680    0.43660    1.000
    C64      C        0.33648    0.64810    0.11360    1.000
    H40      H        0.34360    0.69060    0.15650    1.000
    N2       N        0.28136    0.62080    0.87730    1.000
    C65      C        0.32494    0.58430    0.74190    1.000
    H41      H        0.34330    0.61540    0.77360    1.000
    C66      C        0.36428    0.35660    0.43690    1.000
    H42      H        0.38770    0.33180    0.43790    1.000
    C67      C        0.26160    0.53390    0.73360    1.000
    H43      H        0.23740    0.53210    0.75960    1.000
    C68      C        0.37271    0.55150    0.22390    1.000
    C69      C        0.31535    0.52340    0.98170    1.000
    H44      H        0.30810    0.48140    0.93820    1.000
    C70      C        0.12465    0.81530    0.95370    1.000
    H45      H        0.12850    0.77870    0.00690    1.000
    C71      C        0.36723    0.59400    0.31330    1.000
    H46      H        0.34790    0.63200    0.31780    1.000
    O10      O        0.04322    0.00510    0.78330    1.000
    C72      C        0.09171    0.86080    0.94860    1.000
    H47      H        0.07390    0.85490    0.99950    1.000
    C73      C        0.30623    0.49160    0.60670    1.000
    C74      C        0.42438    0.47960    0.30270    1.000
    H48      H        0.44330    0.44060    0.29910    1.000
    O11      O        0.02823    0.95680    0.93980    1.000
    C75      C        0.40130    0.49370    0.21760    1.000
    H49      H        0.40510    0.46460    0.15770    1.000
    C76      C        0.05005    0.96180    0.86160    1.000
    C77      C        0.33820    0.50610    0.06590    1.000
    H50      H        0.34650    0.45280    0.07630    1.000
    O12      O        0.44347    0.55980    0.55560    1.000
    C78      C        0.44400    0.50910    0.48140    1.000
    C79      C        0.24950    0.17460    0.87970    1.000
    C80      C        0.28992    0.27040    0.79530    1.000
    H51      H        0.29600    0.30050    0.73750    1.000
    C81      C        0.15139    0.06790    0.13510    1.000
    C82      C        0.31285    0.27600    0.88270    1.000
    O13      O        0.11169    0.76400    0.27940    1.000
    H52      H        0.10280    0.75110    0.22420    1.000
    C83      C        0.30192    0.23390    0.96870    1.000
    H53      H        0.31570    0.23970    0.02820    1.000
    O14      O        0.03534    0.94780    0.48720    1.000
    C84      C        0.34810    0.32500    0.87840    1.000
    C85      C        0.16714    0.04210    0.65320    1.000
    H54      H        0.14360    0.04750    0.62370    1.000
    C86      C        0.15845    0.84550    0.35450    1.000
    C87      C        0.35493    0.38150    0.80140    1.000
    H55      H        0.33680    0.39040    0.75180    1.000
    C88      C        0.08093    0.02360    0.39120    1.000
    C89      C        0.41497    0.41430    0.86970    1.000
    C90      C        0.21089    0.07960    0.78310    1.000
    C91      C        0.18245    0.94120    0.51890    1.000
    O15      O        0.16271    0.79230    0.18620    1.000
    C92      C        0.25862    0.22090    0.79450    1.000
    H56      H        0.24360    0.21850    0.73690    1.000
    C93      C        0.18595    0.16560    0.02980    1.000
    H57      H        0.19390    0.21910    0.01850    1.000
    C94      C        0.19397    0.87910    0.35420    1.000
    H58      H        0.20990    0.87060    0.29930    1.000
    C95      C        0.19658    0.10410    0.96290    1.000
    C96      C        0.10979    0.08080    0.39640    1.000
    H59      H        0.11360    0.11020    0.45610    1.000
    C97      C        0.27073    0.18310    0.96820    1.000
    H60      H        0.26400    0.15480    0.02680    1.000
    C98      C        0.22964    0.99100    0.64560    1.000
    H61      H        0.24820    0.96150    0.61240    1.000
    C99      C        0.38822    0.42460    0.79740    1.000
    H62      H        0.39240    0.46120    0.74440    1.000
    C100     C        0.14689    0.90390    0.51880    1.000
    H63      H        0.13090    0.91100    0.57380    1.000
    C101     C        0.14523    0.79900    0.26530    1.000
    C102     C        0.20573    0.92550    0.43650    1.000
    H64      H        0.22990    0.94680    0.43660    1.000
    C103     C        0.16352    0.14810    0.11360    1.000
    H65      H        0.15640    0.19060    0.15650    1.000
    N3       N        0.21864    0.12080    0.87730    1.000
    C104     C        0.17506    0.08430    0.74190    1.000
    H66      H        0.15670    0.11540    0.77360    1.000
    C105     C        0.13572    0.85660    0.43690    1.000
    H67      H        0.11230    0.83180    0.43790    1.000
    C106     C        0.23840    0.03390    0.73360    1.000
    H68      H        0.26260    0.03210    0.75960    1.000
    C107     C        0.12729    0.05150    0.22390    1.000
    C108     C        0.18465    0.02340    0.98170    1.000
    H69      H        0.19190    0.98140    0.93820    1.000
    C109     C        0.37535    0.31530    0.95370    1.000
    H70      H        0.37150    0.27870    0.00690    1.000
    C110     C        0.13277    0.09400    0.31330    1.000
    H71      H        0.15210    0.13200    0.31780    1.000
    O16      O        0.45678    0.50510    0.78330    1.000
    C111     C        0.40829    0.36080    0.94860    1.000
    H72      H        0.42610    0.35490    0.99950    1.000
    C112     C        0.19377    0.99160    0.60670    1.000
    C113     C        0.07562    0.97960    0.30270    1.000
    H73      H        0.05670    0.94060    0.29910    1.000
    O17      O        0.47177    0.45680    0.93980    1.000
    C114     C        0.09870    0.99370    0.21760    1.000
    H74      H        0.09490    0.96460    0.15770    1.000
    C115     C        0.44995    0.46180    0.86160    1.000
    C116     C        0.16180    0.00610    0.06590    1.000
    H75      H        0.15350    0.95280    0.07630    1.000
    O18      O        0.05653    0.05980    0.55560    1.000
    C117     C        0.05600    0.00910    0.48140    1.000
    C118     C        0.75050    0.82540    0.87970    1.000
    C119     C        0.71008    0.72960    0.79530    1.000
    H76      H        0.70400    0.69950    0.73750    1.000
    C120     C        0.84861    0.93210    0.13510    1.000
    C121     C        0.68715    0.72400    0.88270    1.000
    O19      O        0.88831    0.23600    0.27940    1.000
    H77      H        0.89720    0.24890    0.22420    1.000
    C122     C        0.69808    0.76610    0.96870    1.000
    H78      H        0.68430    0.76030    0.02820    1.000
    O20      O        0.96466    0.05220    0.48720    1.000
    C123     C        0.65190    0.67500    0.87840    1.000
    C124     C        0.83286    0.95790    0.65320    1.000
    H79      H        0.85640    0.95250    0.62370    1.000
    C125     C        0.84155    0.15450    0.35450    1.000
    C126     C        0.64507    0.61850    0.80140    1.000
    H80      H        0.66320    0.60960    0.75180    1.000
    C127     C        0.91907    0.97640    0.39120    1.000
    C128     C        0.58503    0.58570    0.86970    1.000
    C129     C        0.78911    0.92040    0.78310    1.000
    C130     C        0.81755    0.05880    0.51890    1.000
    O21      O        0.83729    0.20770    0.18620    1.000
    C131     C        0.74138    0.77910    0.79450    1.000
    H81      H        0.75640    0.78150    0.73690    1.000
    C132     C        0.81405    0.83440    0.02980    1.000
    H82      H        0.80610    0.78090    0.01850    1.000
    C133     C        0.80603    0.12090    0.35420    1.000
    H83      H        0.79010    0.12940    0.29930    1.000
    C134     C        0.80342    0.89590    0.96290    1.000
    C135     C        0.89021    0.91920    0.39640    1.000
    H84      H        0.88640    0.88980    0.45610    1.000
    C136     C        0.72927    0.81690    0.96820    1.000
    H85      H        0.73600    0.84520    0.02680    1.000
    C137     C        0.77036    0.00900    0.64560    1.000
    H86      H        0.75180    0.03850    0.61240    1.000
    C138     C        0.61178    0.57540    0.79740    1.000
    H87      H        0.60760    0.53880    0.74440    1.000
    C139     C        0.85311    0.09610    0.51880    1.000
    H88      H        0.86910    0.08900    0.57380    1.000
    C140     C        0.85477    0.20100    0.26530    1.000
    C141     C        0.79427    0.07450    0.43650    1.000
    H89      H        0.77010    0.05320    0.43660    1.000
    C142     C        0.83648    0.85190    0.11360    1.000
    H90      H        0.84360    0.80940    0.15650    1.000
    N4       N        0.78136    0.87920    0.87730    1.000
    C143     C        0.82494    0.91570    0.74190    1.000
    H91      H        0.84330    0.88460    0.77360    1.000
    C144     C        0.86428    0.14340    0.43690    1.000
    H92      H        0.88770    0.16820    0.43790    1.000
    C145     C        0.76160    0.96610    0.73360    1.000
    H93      H        0.73740    0.96790    0.75960    1.000
    C146     C        0.87271    0.94850    0.22390    1.000
    C147     C        0.81535    0.97660    0.98170    1.000
    H94      H        0.80810    0.01860    0.93820    1.000
    C148     C        0.62465    0.68470    0.95370    1.000
    H95      H        0.62850    0.72130    0.00690    1.000
    C149     C        0.86723    0.90600    0.31330    1.000
    H96      H        0.84790    0.86800    0.31780    1.000
    O22      O        0.54322    0.49490    0.78330    1.000
    C150     C        0.59171    0.63920    0.94860    1.000
    H97      H        0.57390    0.64510    0.99950    1.000
    C151     C        0.80623    0.00840    0.60670    1.000
    C152     C        0.92438    0.02040    0.30270    1.000
    H98      H        0.94330    0.05940    0.29910    1.000
    O23      O        0.52823    0.54320    0.93980    1.000
    C153     C        0.90130    0.00630    0.21760    1.000
    H99      H        0.90510    0.03540    0.15770    1.000
    C154     C        0.55005    0.53820    0.86160    1.000
    C155     C        0.83820    0.99390    0.06590    1.000
    H100     H        0.84650    0.04720    0.07630    1.000
    O24      O        0.94347    0.94020    0.55560    1.000
    C156     C        0.94400    0.99090    0.48140    1.000
    Ce1      Ce       0.00000    0.00000    0.64079    1.000
    Ce2      Ce       0.50000    0.50000    0.64079    1.000
    C157     C        0.74950    0.82540    0.37970    1.000
    C158     C        0.78992    0.72960    0.29530    1.000
    H101     H        0.79600    0.69950    0.23750    1.000
    C159     C        0.65139    0.93210    0.63510    1.000
    C160     C        0.81285    0.72400    0.38270    1.000
    O25      O        0.61169    0.23600    0.77940    1.000
    H102     H        0.60280    0.24890    0.72420    1.000
    C161     C        0.80192    0.76610    0.46870    1.000
    H103     H        0.81570    0.76030    0.52820    1.000
    O26      O        0.53534    0.05220    0.98720    1.000
    C162     C        0.84810    0.67500    0.37840    1.000
    C163     C        0.66714    0.95790    0.15320    1.000
    H104     H        0.64360    0.95250    0.12370    1.000
    C164     C        0.65845    0.15450    0.85450    1.000
    C165     C        0.85493    0.61850    0.30140    1.000
    H105     H        0.83680    0.60960    0.25180    1.000
    C166     C        0.58093    0.97640    0.89120    1.000
    C167     C        0.91497    0.58570    0.36970    1.000
    C168     C        0.71089    0.92040    0.28310    1.000
    C169     C        0.68245    0.05880    0.01890    1.000
    O27      O        0.66271    0.20770    0.68620    1.000
    C170     C        0.75862    0.77910    0.29450    1.000
    H106     H        0.74360    0.78150    0.23690    1.000
    C171     C        0.68595    0.83440    0.52980    1.000
    H107     H        0.69390    0.78090    0.51850    1.000
    C172     C        0.69397    0.12090    0.85420    1.000
    H108     H        0.70990    0.12940    0.79930    1.000
    C173     C        0.69658    0.89590    0.46290    1.000
    C174     C        0.60979    0.91920    0.89640    1.000
    H109     H        0.61360    0.88980    0.95610    1.000
    C175     C        0.77073    0.81690    0.46820    1.000
    H110     H        0.76400    0.84520    0.52680    1.000
    C176     C        0.72964    0.00900    0.14560    1.000
    H111     H        0.74820    0.03850    0.11240    1.000
    C177     C        0.88822    0.57540    0.29740    1.000
    H112     H        0.89240    0.53880    0.24440    1.000
    C178     C        0.64689    0.09610    0.01880    1.000
    H113     H        0.63090    0.08900    0.07380    1.000
    C179     C        0.64523    0.20100    0.76530    1.000
    C180     C        0.70573    0.07450    0.93650    1.000
    H114     H        0.72990    0.05320    0.93660    1.000
    C181     C        0.66352    0.85190    0.61360    1.000
    H115     H        0.65640    0.80940    0.65650    1.000
    N5       N        0.71864    0.87920    0.37730    1.000
    C182     C        0.67506    0.91570    0.24190    1.000
    H116     H        0.65670    0.88460    0.27360    1.000
    C183     C        0.63572    0.14340    0.93690    1.000
    H117     H        0.61230    0.16820    0.93790    1.000
    C184     C        0.73840    0.96610    0.23360    1.000
    H118     H        0.76260    0.96790    0.25960    1.000
    C185     C        0.62729    0.94850    0.72390    1.000
    C186     C        0.68465    0.97660    0.48170    1.000
    H119     H        0.69190    0.01860    0.43820    1.000
    C187     C        0.87535    0.68470    0.45370    1.000
    H120     H        0.87150    0.72130    0.50690    1.000
    C188     C        0.63277    0.90600    0.81330    1.000
    H121     H        0.65210    0.86800    0.81780    1.000
    O28      O        0.95678    0.49490    0.28330    1.000
    C189     C        0.90829    0.63920    0.44860    1.000
    H122     H        0.92610    0.64510    0.49950    1.000
    C190     C        0.69377    0.00840    0.10670    1.000
    C191     C        0.57562    0.02040    0.80270    1.000
    H123     H        0.55670    0.05940    0.79910    1.000
    O29      O        0.97177    0.54320    0.43980    1.000
    C192     C        0.59870    0.00630    0.71760    1.000
    H124     H        0.59490    0.03540    0.65770    1.000
    C193     C        0.94995    0.53820    0.36160    1.000
    C194     C        0.66180    0.99390    0.56590    1.000
    H125     H        0.65350    0.04720    0.57630    1.000
    O30      O        0.55653    0.94020    0.05560    1.000
    C195     C        0.55600    0.99090    0.98140    1.000
    C196     C        0.25050    0.17460    0.37970    1.000
    C197     C        0.21008    0.27040    0.29530    1.000
    H126     H        0.20400    0.30050    0.23750    1.000
    C198     C        0.34861    0.06790    0.63510    1.000
    C199     C        0.18715    0.27600    0.38270    1.000
    O31      O        0.38831    0.76400    0.77940    1.000
    H127     H        0.39720    0.75110    0.72420    1.000
    C200     C        0.19808    0.23390    0.46870    1.000
    H128     H        0.18430    0.23970    0.52820    1.000
    O32      O        0.46466    0.94780    0.98720    1.000
    C201     C        0.15190    0.32500    0.37840    1.000
    C202     C        0.33286    0.04210    0.15320    1.000
    H129     H        0.35640    0.04750    0.12370    1.000
    C203     C        0.34155    0.84550    0.85450    1.000
    C204     C        0.14507    0.38150    0.30140    1.000
    H130     H        0.16320    0.39040    0.25180    1.000
    C205     C        0.41907    0.02360    0.89120    1.000
    C206     C        0.08503    0.41430    0.36970    1.000
    C207     C        0.28911    0.07960    0.28310    1.000
    C208     C        0.31755    0.94120    0.01890    1.000
    O33      O        0.33729    0.79230    0.68620    1.000
    C209     C        0.24138    0.22090    0.29450    1.000
    H131     H        0.25640    0.21850    0.23690    1.000
    C210     C        0.31405    0.16560    0.52980    1.000
    H132     H        0.30610    0.21910    0.51850    1.000
    C211     C        0.30603    0.87910    0.85420    1.000
    H133     H        0.29010    0.87060    0.79930    1.000
    C212     C        0.30342    0.10410    0.46290    1.000
    C213     C        0.39021    0.08080    0.89640    1.000
    H134     H        0.38640    0.11020    0.95610    1.000
    C214     C        0.22927    0.18310    0.46820    1.000
    H135     H        0.23600    0.15480    0.52680    1.000
    C215     C        0.27036    0.99100    0.14560    1.000
    H136     H        0.25180    0.96150    0.11240    1.000
    C216     C        0.11178    0.42460    0.29740    1.000
    H137     H        0.10760    0.46120    0.24440    1.000
    C217     C        0.35311    0.90390    0.01880    1.000
    H138     H        0.36910    0.91100    0.07380    1.000
    C218     C        0.35477    0.79900    0.76530    1.000
    C219     C        0.29427    0.92550    0.93650    1.000
    H139     H        0.27010    0.94680    0.93660    1.000
    C220     C        0.33648    0.14810    0.61360    1.000
    H140     H        0.34360    0.19060    0.65650    1.000
    N6       N        0.28136    0.12080    0.37730    1.000
    C221     C        0.32494    0.08430    0.24190    1.000
    H141     H        0.34330    0.11540    0.27360    1.000
    C222     C        0.36428    0.85660    0.93690    1.000
    H142     H        0.38770    0.83180    0.93790    1.000
    C223     C        0.26160    0.03390    0.23360    1.000
    H143     H        0.23740    0.03210    0.25960    1.000
    C224     C        0.37271    0.05150    0.72390    1.000
    C225     C        0.31535    0.02340    0.48170    1.000
    H144     H        0.30810    0.98140    0.43820    1.000
    C226     C        0.12465    0.31530    0.45370    1.000
    H145     H        0.12850    0.27870    0.50690    1.000
    C227     C        0.36723    0.09400    0.81330    1.000
    H146     H        0.34790    0.13200    0.81780    1.000
    O34      O        0.04322    0.50510    0.28330    1.000
    C228     C        0.09171    0.36080    0.44860    1.000
    H147     H        0.07390    0.35490    0.49950    1.000
    C229     C        0.30623    0.99160    0.10670    1.000
    C230     C        0.42438    0.97960    0.80270    1.000
    H148     H        0.44330    0.94060    0.79910    1.000
    O35      O        0.02823    0.45680    0.43980    1.000
    C231     C        0.40130    0.99370    0.71760    1.000
    H149     H        0.40510    0.96460    0.65770    1.000
    C232     C        0.05005    0.46180    0.36160    1.000
    C233     C        0.33820    0.00610    0.56590    1.000
    H150     H        0.34650    0.95280    0.57630    1.000
    O36      O        0.44347    0.05980    0.05560    1.000
    C234     C        0.44400    0.00910    0.98140    1.000
    C235     C        0.24950    0.67460    0.37970    1.000
    C236     C        0.28992    0.77040    0.29530    1.000
    H151     H        0.29600    0.80050    0.23750    1.000
    C237     C        0.15139    0.56790    0.63510    1.000
    C238     C        0.31285    0.77600    0.38270    1.000
    O37      O        0.11169    0.26400    0.77940    1.000
    H152     H        0.10280    0.25110    0.72420    1.000
    C239     C        0.30192    0.73390    0.46870    1.000
    H153     H        0.31570    0.73970    0.52820    1.000
    O38      O        0.03534    0.44780    0.98720    1.000
    C240     C        0.34810    0.82500    0.37840    1.000
    C241     C        0.16714    0.54210    0.15320    1.000
    H154     H        0.14360    0.54750    0.12370    1.000
    C242     C        0.15845    0.34550    0.85450    1.000
    C243     C        0.35493    0.88150    0.30140    1.000
    H155     H        0.33680    0.89040    0.25180    1.000
    C244     C        0.08093    0.52360    0.89120    1.000
    C245     C        0.41497    0.91430    0.36970    1.000
    C246     C        0.21089    0.57960    0.28310    1.000
    C247     C        0.18245    0.44120    0.01890    1.000
    O39      O        0.16271    0.29230    0.68620    1.000
    C248     C        0.25862    0.72090    0.29450    1.000
    H156     H        0.24360    0.71850    0.23690    1.000
    C249     C        0.18595    0.66560    0.52980    1.000
    H157     H        0.19390    0.71910    0.51850    1.000
    C250     C        0.19397    0.37910    0.85420    1.000
    H158     H        0.20990    0.37060    0.79930    1.000
    C251     C        0.19658    0.60410    0.46290    1.000
    C252     C        0.10979    0.58080    0.89640    1.000
    H159     H        0.11360    0.61020    0.95610    1.000
    C253     C        0.27073    0.68310    0.46820    1.000
    H160     H        0.26400    0.65480    0.52680    1.000
    C254     C        0.22964    0.49100    0.14560    1.000
    H161     H        0.24820    0.46150    0.11240    1.000
    C255     C        0.38822    0.92460    0.29740    1.000
    H162     H        0.39240    0.96120    0.24440    1.000
    C256     C        0.14689    0.40390    0.01880    1.000
    H163     H        0.13090    0.41100    0.07380    1.000
    C257     C        0.14523    0.29900    0.76530    1.000
    C258     C        0.20573    0.42550    0.93650    1.000
    H164     H        0.22990    0.44680    0.93660    1.000
    C259     C        0.16352    0.64810    0.61360    1.000
    H165     H        0.15640    0.69060    0.65650    1.000
    N7       N        0.21864    0.62080    0.37730    1.000
    C260     C        0.17506    0.58430    0.24190    1.000
    H166     H        0.15670    0.61540    0.27360    1.000
    C261     C        0.13572    0.35660    0.93690    1.000
    H167     H        0.11230    0.33180    0.93790    1.000
    C262     C        0.23840    0.53390    0.23360    1.000
    H168     H        0.26260    0.53210    0.25960    1.000
    C263     C        0.12729    0.55150    0.72390    1.000
    C264     C        0.18465    0.52340    0.48170    1.000
    H169     H        0.19190    0.48140    0.43820    1.000
    C265     C        0.37535    0.81530    0.45370    1.000
    H170     H        0.37150    0.77870    0.50690    1.000
    C266     C        0.13277    0.59400    0.81330    1.000
    H171     H        0.15210    0.63200    0.81780    1.000
    O40      O        0.45678    0.00510    0.28330    1.000
    C267     C        0.40829    0.86080    0.44860    1.000
    H172     H        0.42610    0.85490    0.49950    1.000
    C268     C        0.19377    0.49160    0.10670    1.000
    C269     C        0.07562    0.47960    0.80270    1.000
    H173     H        0.05670    0.44060    0.79910    1.000
    O41      O        0.47177    0.95680    0.43980    1.000
    C270     C        0.09870    0.49370    0.71760    1.000
    H174     H        0.09490    0.46460    0.65770    1.000
    C271     C        0.44995    0.96180    0.36160    1.000
    C272     C        0.16180    0.50610    0.56590    1.000
    H175     H        0.15350    0.45280    0.57630    1.000
    O42      O        0.05653    0.55980    0.05560    1.000
    C273     C        0.05600    0.50910    0.98140    1.000
    C274     C        0.75050    0.32540    0.37970    1.000
    C275     C        0.71008    0.22960    0.29530    1.000
    H176     H        0.70400    0.19950    0.23750    1.000
    C276     C        0.84861    0.43210    0.63510    1.000
    C277     C        0.68715    0.22400    0.38270    1.000
    O43      O        0.88831    0.73600    0.77940    1.000
    H177     H        0.89720    0.74890    0.72420    1.000
    C278     C        0.69808    0.26610    0.46870    1.000
    H178     H        0.68430    0.26030    0.52820    1.000
    O44      O        0.96466    0.55220    0.98720    1.000
    C279     C        0.65190    0.17500    0.37840    1.000
    C280     C        0.83286    0.45790    0.15320    1.000
    H179     H        0.85640    0.45250    0.12370    1.000
    C281     C        0.84155    0.65450    0.85450    1.000
    C282     C        0.64507    0.11850    0.30140    1.000
    H180     H        0.66320    0.10960    0.25180    1.000
    C283     C        0.91907    0.47640    0.89120    1.000
    C284     C        0.58503    0.08570    0.36970    1.000
    C285     C        0.78911    0.42040    0.28310    1.000
    C286     C        0.81755    0.55880    0.01890    1.000
    O45      O        0.83729    0.70770    0.68620    1.000
    C287     C        0.74138    0.27910    0.29450    1.000
    H181     H        0.75640    0.28150    0.23690    1.000
    C288     C        0.81405    0.33440    0.52980    1.000
    H182     H        0.80610    0.28090    0.51850    1.000
    C289     C        0.80603    0.62090    0.85420    1.000
    H183     H        0.79010    0.62940    0.79930    1.000
    C290     C        0.80342    0.39590    0.46290    1.000
    C291     C        0.89021    0.41920    0.89640    1.000
    H184     H        0.88640    0.38980    0.95610    1.000
    C292     C        0.72927    0.31690    0.46820    1.000
    H185     H        0.73600    0.34520    0.52680    1.000
    C293     C        0.77036    0.50900    0.14560    1.000
    H186     H        0.75180    0.53850    0.11240    1.000
    C294     C        0.61178    0.07540    0.29740    1.000
    H187     H        0.60760    0.03880    0.24440    1.000
    C295     C        0.85311    0.59610    0.01880    1.000
    H188     H        0.86910    0.58900    0.07380    1.000
    C296     C        0.85477    0.70100    0.76530    1.000
    C297     C        0.79427    0.57450    0.93650    1.000
    H189     H        0.77010    0.55320    0.93660    1.000
    C298     C        0.83648    0.35190    0.61360    1.000
    H190     H        0.84360    0.30940    0.65650    1.000
    N8       N        0.78136    0.37920    0.37730    1.000
    C299     C        0.82494    0.41570    0.24190    1.000
    H191     H        0.84330    0.38460    0.27360    1.000
    C300     C        0.86428    0.64340    0.93690    1.000
    H192     H        0.88770    0.66820    0.93790    1.000
    C301     C        0.76160    0.46610    0.23360    1.000
    H193     H        0.73740    0.46790    0.25960    1.000
    C302     C        0.87271    0.44850    0.72390    1.000
    C303     C        0.81535    0.47660    0.48170    1.000
    H194     H        0.80810    0.51860    0.43820    1.000
    C304     C        0.62465    0.18470    0.45370    1.000
    H195     H        0.62850    0.22130    0.50690    1.000
    C305     C        0.86723    0.40600    0.81330    1.000
    H196     H        0.84790    0.36800    0.81780    1.000
    O46      O        0.54322    0.99490    0.28330    1.000
    C306     C        0.59171    0.13920    0.44860    1.000
    H197     H        0.57390    0.14510    0.49950    1.000
    C307     C        0.80623    0.50840    0.10670    1.000
    C308     C        0.92438    0.52040    0.80270    1.000
    H198     H        0.94330    0.55940    0.79910    1.000
    O47      O        0.52823    0.04320    0.43980    1.000
    C309     C        0.90130    0.50630    0.71760    1.000
    H199     H        0.90510    0.53540    0.65770    1.000
    C310     C        0.55005    0.03820    0.36160    1.000
    C311     C        0.83820    0.49390    0.56590    1.000
    H200     H        0.84650    0.54720    0.57630    1.000
    O48      O        0.94347    0.44020    0.05560    1.000
    C312     C        0.94400    0.49090    0.98140    1.000
    Ce3      Ce       0.00000    0.50000    0.14079    1.000
    Ce4      Ce       0.50000    0.00000    0.14079    1.000
