# CIF file generated by openbabel 3.1.0, see https://openbabel.org
data_I
_chemical_name_common 'YUSGID_clean'
_cell_length_a 9.4093
_cell_length_b 9.876
_cell_length_c 18.307
_cell_angle_alpha 79.35
_cell_angle_beta 87.3
_cell_angle_gamma 68.2
_space_group_name_H-M_alt 'P 1'
_space_group_name_Hall 'P 1'
loop_
    _symmetry_equiv_pos_as_xyz
    x,y,z
loop_
    _atom_site_label
    _atom_site_type_symbol
    _atom_site_fract_x
    _atom_site_fract_y
    _atom_site_fract_z
    _atom_site_occupancy
    Zn1      Zn       0.80924    0.10031    0.85665    1.000
    Zn2      Zn       0.09430    0.09448    0.96855    1.000
    Zn3      Zn       0.19076    0.89969    0.14335    1.000
    Zn4      Zn       0.90570    0.90552    0.03145    1.000
    H1       H        0.93620    0.06760    0.70680    1.000
    H2       H        0.04720    0.18860    0.61650    1.000
    H3       H        0.93170    0.52310    0.72520    1.000
    H4       H        0.81520    0.40260    0.81110    1.000
    H5       H        0.07860    0.54100    0.61580    1.000
    H6       H        0.16550    0.30620    0.54780    1.000
    H7       H        0.29690    0.30590    0.43970    1.000
    H8       H        0.43340    0.39140    0.35050    1.000
    H9       H        0.36040    0.73940    0.44490    1.000
    H10      H        0.22680    0.64800    0.53800    1.000
    H11      H        0.53630    0.53420    0.29260    1.000
    H12      H        0.49960    0.79050    0.33150    1.000
    H13      H        0.70200    0.55260    0.19270    1.000
    H14      H        0.84150    0.63170    0.09910    1.000
    H15      H        0.74930    0.00040    0.17190    1.000
    H16      H        0.60980    0.93030    0.26670    1.000
    H17      H        0.42560    0.46020    0.93900    1.000
    H18      H        0.11890    0.46010    0.09910    1.000
    H19      H        0.47830    0.08650    0.08580    1.000
    H20      H        0.01500    0.90370    0.91910    1.000
    H21      H        0.06380    0.93240    0.29320    1.000
    H22      H        0.95280    0.81140    0.38350    1.000
    H23      H        0.06830    0.47690    0.27480    1.000
    H24      H        0.18480    0.59740    0.18890    1.000
    H25      H        0.92140    0.45900    0.38420    1.000
    H26      H        0.83450    0.69380    0.45220    1.000
    H27      H        0.70310    0.69410    0.56030    1.000
    H28      H        0.56660    0.60860    0.64950    1.000
    H29      H        0.63960    0.26060    0.55510    1.000
    H30      H        0.77320    0.35200    0.46200    1.000
    H31      H        0.46370    0.46580    0.70740    1.000
    H32      H        0.50040    0.20950    0.66850    1.000
    H33      H        0.29800    0.44740    0.80730    1.000
    H34      H        0.15850    0.36830    0.90090    1.000
    H35      H        0.25070    0.99960    0.82810    1.000
    H36      H        0.39020    0.06970    0.73330    1.000
    H37      H        0.57440    0.53980    0.06100    1.000
    H38      H        0.88110    0.53990    0.90090    1.000
    H39      H        0.52170    0.91350    0.91420    1.000
    H40      H        0.98500    0.09630    0.08090    1.000
    C1       C        0.93590    0.15990    0.71140    1.000
    C2       C        0.00390    0.23210    0.65720    1.000
    C3       C        0.00760    0.36660    0.66300    1.000
    C4       C        0.93500    0.42970    0.72070    1.000
    C5       C        0.86650    0.35630    0.77250    1.000
    C6       C        0.08620    0.44770    0.60870    1.000
    C7       C        0.16190    0.39870    0.55410    1.000
    C8       C        0.24610    0.46860    0.49840    1.000
    C9       C        0.30950    0.39430    0.44150    1.000
    C10      C        0.39050    0.44630    0.38750    1.000
    C11      C        0.41040    0.57490    0.38620    1.000
    C12      C        0.34810    0.65070    0.44360    1.000
    C13      C        0.26690    0.59600    0.49960    1.000
    C14      C        0.50150    0.60600    0.32250    1.000
    C15      C        0.53760    0.71530    0.30370    1.000
    C16      C        0.63560    0.73720    0.24090    1.000
    C17      C        0.70960    0.64480    0.18920    1.000
    C18      C        0.79380    0.69320    0.13300    1.000
    C19      C        0.73970    0.90890    0.17580    1.000
    C20      C        0.65460    0.86720    0.23310    1.000
    C21      C        0.47300    0.25980    0.00633    1.000
    C22      C        0.39130    0.41040    0.97984    1.000
    C23      C        0.25810    0.48550    0.01510    1.000
    C24      C        0.20850    0.41070    0.07602    1.000
    C25      C        0.29210    0.26170    0.10286    1.000
    C26      C        0.42330    0.18640    0.06795    1.000
    C27      C        0.61340    0.17510    0.96859    1.000
    C28      C        0.16480    0.64730    0.98677    1.000
    C29      C        0.06410    0.84010    0.28860    1.000
    C30      C        0.99610    0.76790    0.34280    1.000
    C31      C        0.99240    0.63340    0.33700    1.000
    C32      C        0.06500    0.57030    0.27930    1.000
    C33      C        0.13350    0.64370    0.22750    1.000
    C34      C        0.91380    0.55230    0.39130    1.000
    C35      C        0.83810    0.60130    0.44590    1.000
    C36      C        0.75390    0.53140    0.50160    1.000
    C37      C        0.69050    0.60570    0.55850    1.000
    C38      C        0.60950    0.55370    0.61250    1.000
    C39      C        0.58960    0.42510    0.61380    1.000
    C40      C        0.65190    0.34930    0.55640    1.000
    C41      C        0.73310    0.40400    0.50040    1.000
    C42      C        0.49850    0.39400    0.67750    1.000
    C43      C        0.46240    0.28470    0.69630    1.000
    C44      C        0.36440    0.26280    0.75910    1.000
    C45      C        0.29040    0.35520    0.81080    1.000
    C46      C        0.20620    0.30680    0.86700    1.000
    C47      C        0.26030    0.09110    0.82420    1.000
    C48      C        0.34540    0.13280    0.76690    1.000
    C49      C        0.52700    0.74020    0.99367    1.000
    C50      C        0.60870    0.58960    0.02016    1.000
    C51      C        0.74190    0.51450    0.98490    1.000
    C52      C        0.79150    0.58930    0.92398    1.000
    C53      C        0.70790    0.73830    0.89714    1.000
    C54      C        0.57670    0.81360    0.93205    1.000
    C55      C        0.38660    0.82490    0.03141    1.000
    C56      C        0.83520    0.35270    0.01323    1.000
    S1       S        0.24047    0.17554    0.18820    1.000
    S2       S        0.75953    0.82446    0.81180    1.000
    N1       N        0.87060    0.21850    0.76952    1.000
    N2       N        0.80890    0.82380    0.12576    1.000
    N3       N        0.12940    0.78150    0.23048    1.000
    N4       N        0.19110    0.17620    0.87424    1.000
    O1       O        0.68560    0.04210    0.99858    1.000
    O2       O        0.64950    0.23840    0.90857    1.000
    O3       O        0.04700    0.70110    0.02500    1.000
    O4       O        0.20670    0.71580    0.93194    1.000
    O5       O        0.28760    0.01680    0.18301    1.000
    O6       O        0.33140    0.19270    0.24455    1.000
    O7       O        0.07760    0.24620    0.19452    1.000
    O8       O        0.98140    0.98750    0.92582    1.000
    O9       O        0.31440    0.95790    0.00142    1.000
    O10      O        0.35050    0.76160    0.09143    1.000
    O11      O        0.95300    0.29890    0.97500    1.000
    O12      O        0.79330    0.28420    0.06806    1.000
    O13      O        0.71240    0.98320    0.81699    1.000
    O14      O        0.66860    0.80730    0.75545    1.000
    O15      O        0.92240    0.75380    0.80548    1.000
    O16      O        0.01860    0.01250    0.07418    1.000
