# CIF file generated by openbabel 3.1.0, see https://openbabel.org
data_I
_chemical_name_common 'OPENIH_clean'
_cell_length_a 8.497
_cell_length_b 9.49
_cell_length_c 14.135
_cell_angle_alpha 80.55
_cell_angle_beta 88.56
_cell_angle_gamma 73.51
_space_group_name_H-M_alt 'P 1'
_space_group_name_Hall 'P 1'
loop_
    _symmetry_equiv_pos_as_xyz
    x,y,z
loop_
    _atom_site_label
    _atom_site_type_symbol
    _atom_site_fract_x
    _atom_site_fract_y
    _atom_site_fract_z
    _atom_site_occupancy
    Cu1      Cu       0.55652    0.64415    0.14309    1.000
    Cu2      Cu       0.51539    0.79844    0.90222    1.000
    Cu3      Cu       0.44348    0.35585    0.85691    1.000
    Cu4      Cu       0.48461    0.20156    0.09778    1.000
    H1       H        0.06360    0.90020    0.17400    1.000
    H2       H        0.96600    0.37710    0.01020    1.000
    H3       H        0.57990    0.37220    0.28940    1.000
    H4       H        0.45720    0.30390    0.42850    1.000
    H5       H        0.22330    0.73390    0.42720    1.000
    H6       H        0.35070    0.79140    0.28820    1.000
    H7       H        0.90880    0.77820    0.63920    1.000
    H8       H        0.69900    0.88410    0.73310    1.000
    H9       H        0.73180    0.50070    0.89300    1.000
    H10      H        0.93490    0.38300    0.79940    1.000
    H11      H        0.14080    0.28120    0.69580    1.000
    H12      H        0.93640    0.09980    0.82600    1.000
    H13      H        0.03400    0.62290    0.98980    1.000
    H14      H        0.42010    0.62780    0.71060    1.000
    H15      H        0.54280    0.69610    0.57150    1.000
    H16      H        0.77670    0.26610    0.57280    1.000
    H17      H        0.64930    0.20860    0.71180    1.000
    H18      H        0.09120    0.22180    0.36080    1.000
    H19      H        0.30100    0.11590    0.26690    1.000
    H20      H        0.26820    0.49930    0.10700    1.000
    H21      H        0.06510    0.61700    0.20060    1.000
    H22      H        0.85920    0.71880    0.30420    1.000
    C1       C        0.30250    0.91010    0.05280    1.000
    C2       C        0.15440    0.02940    0.07250    1.000
    C3       C        0.04090    0.99560    0.13870    1.000
    C4       C        0.89500    0.10040    0.15320    1.000
    C5       C        0.86780    0.24580    0.10470    1.000
    C6       C        0.98360    0.27940    0.04110    1.000
    C7       C        0.12430    0.17320    0.02190    1.000
    C8       C        0.23480    0.22360    0.94710    1.000
    C9       C        0.77540    0.05050    0.22350    1.000
    C10      C        0.72190    0.37500    0.11550    1.000
    C11      C        0.50540    0.44580    0.31700    1.000
    C12      C        0.43250    0.40360    0.40060    1.000
    C13      C        0.32220    0.51130    0.44260    1.000
    C14      C        0.29410    0.65820    0.39960    1.000
    C15      C        0.37110    0.69190    0.31620    1.000
    C16      C        0.23420    0.47420    0.52970    1.000
    C17      C        0.07180    0.50050    0.64310    1.000
    C18      C        0.94460    0.56630    0.70820    1.000
    C19      C        0.87320    0.71940    0.68950    1.000
    C20      C        0.74890    0.78210    0.74710    1.000
    C21      C        0.76680    0.55660    0.84070    1.000
    C22      C        0.88930    0.48560    0.78510    1.000
    C23      C        0.69750    0.08990    0.94720    1.000
    C24      C        0.84560    0.97060    0.92750    1.000
    C25      C        0.95910    0.00440    0.86130    1.000
    C26      C        0.10500    0.89960    0.84680    1.000
    C27      C        0.13220    0.75420    0.89530    1.000
    C28      C        0.01640    0.72060    0.95890    1.000
    C29      C        0.87570    0.82680    0.97810    1.000
    C30      C        0.76520    0.77640    0.05290    1.000
    C31      C        0.22460    0.94950    0.77650    1.000
    C32      C        0.27810    0.62500    0.88450    1.000
    C33      C        0.49460    0.55420    0.68300    1.000
    C34      C        0.56750    0.59640    0.59940    1.000
    C35      C        0.67780    0.48870    0.55740    1.000
    C36      C        0.70590    0.34180    0.60040    1.000
    C37      C        0.62890    0.30810    0.68380    1.000
    C38      C        0.76580    0.52580    0.47030    1.000
    C39      C        0.92820    0.49950    0.35690    1.000
    C40      C        0.05540    0.43370    0.29180    1.000
    C41      C        0.12680    0.28060    0.31050    1.000
    C42      C        0.25110    0.21790    0.25290    1.000
    C43      C        0.23320    0.44340    0.15930    1.000
    C44      C        0.11070    0.51440    0.21490    1.000
    N1       N        0.47440    0.58790    0.27300    1.000
    N2       N        0.12110    0.57890    0.56800    1.000
    N3       N        0.25720    0.33710    0.57570    1.000
    N4       N        0.15190    0.35560    0.64900    1.000
    N5       N        0.69650    0.70360    0.82190    1.000
    N6       N        0.52560    0.41210    0.72700    1.000
    N7       N        0.87890    0.42110    0.43200    1.000
    N8       N        0.74280    0.66290    0.42430    1.000
    N9       N        0.84810    0.64440    0.35100    1.000
    N10      N        0.30350    0.29640    0.17810    1.000
    O1       O        0.34830    0.79590    0.11520    1.000
    O2       O        0.36650    0.93470    0.97340    1.000
    O3       O        0.34690    0.27620    0.97710    1.000
    O4       O        0.21130    0.22950    0.86220    1.000
    O5       O        0.62190    0.11460    0.21270    1.000
    O6       O        0.83540    0.94840    0.28990    1.000
    O7       O        0.74870    0.47130    0.15950    1.000
    O8       O        0.58700    0.38850    0.07740    1.000
    O9       O        0.65170    0.20410    0.88480    1.000
    O10      O        0.63350    0.06530    0.02660    1.000
    O11      O        0.65310    0.72380    0.02290    1.000
    O12      O        0.78870    0.77050    0.13780    1.000
    O13      O        0.37810    0.88540    0.78730    1.000
    O14      O        0.16460    0.05160    0.71010    1.000
    O15      O        0.25130    0.52870    0.84050    1.000
    O16      O        0.41300    0.61150    0.92260    1.000
