# CIF file generated by openbabel 3.1.0, see https://openbabel.org
data_I
_chemical_name_common 'image0'
_cell_length_a 11.6583
_cell_length_b 5.5671
_cell_length_c 22.911
_cell_angle_alpha 90
_cell_angle_beta 100.901
_cell_angle_gamma 90
_space_group_name_H-M_alt 'P 1'
_space_group_name_Hall 'P 1'
loop_
    _symmetry_equiv_pos_as_xyz
    x,y,z
loop_
    _atom_site_label
    _atom_site_type_symbol
    _atom_site_fract_x
    _atom_site_fract_y
    _atom_site_fract_z
    _atom_site_occupancy
    O1       O        0.49419    0.19200    0.12907    1.000
    O2       O        0.41358    0.77800    0.10970    1.000
    C1       C        0.35140    0.10870    0.02994    1.000
    C2       C        0.27890    0.10820    0.14135    1.000
    Ca1      Ca       0.63699    0.24316    0.22135    1.000
    S1       S        0.39687    0.03423    0.10599    1.000
    O3       O        0.25974    0.08570    0.80889    1.000
    O4       O        0.26350    0.47700    0.82768    1.000
    O5       O        0.98770    0.47600    0.24702    1.000
    O6       O        0.95873    0.08080    0.25598    1.000
    C3       C        0.18790    0.37640    0.20007    1.000
    H1       H        0.18560    0.52600    0.21980    1.000
    C4       C        0.18980    0.94130    0.13974    1.000
    H2       H        0.18980    0.79610    0.11800    1.000
    C5       C        0.38060    0.33220    0.01003    1.000
    H3       H        0.41890    0.44900    0.03710    1.000
    C6       C        0.09970    0.20820    0.20073    1.000
    C7       C        0.29670    0.20870    0.90998    1.000
    C8       C        0.26480    0.98850    0.93084    1.000
    H4       H        0.22530    0.87260    0.90390    1.000
    C9       C        0.27990    0.32660    0.17062    1.000
    H5       H        0.34120    0.43890    0.17070    1.000
    C10      C        0.35240    0.38080    0.94939    1.000
    H6       H        0.37130    0.53270    0.93480    1.000
    C11      C        0.29130    0.93890    0.99180    1.000
    H7       H        0.26840    0.79090    0.00680    1.000
    C12      C        0.27340    0.26210    0.84449    1.000
    C13      C        0.10070    0.99050    0.17055    1.000
    H8       H        0.04040    0.87600    0.17110    1.000
    C14      C        0.00700    0.25890    0.23774    1.000
    O7       O        0.00581    0.69200    0.37093    1.000
    O8       O        0.08642    0.27800    0.39030    1.000
    C15      C        0.14860    0.60870    0.47006    1.000
    C16      C        0.22110    0.60820    0.35865    1.000
    Ca2      Ca       0.86301    0.74316    0.27865    1.000
    S2       S        0.10313    0.53423    0.39401    1.000
    O9       O        0.24026    0.58570    0.69111    1.000
    O10      O        0.23650    0.97700    0.67232    1.000
    O11      O        0.51230    0.97600    0.25298    1.000
    O12      O        0.54127    0.58080    0.24402    1.000
    C17      C        0.31210    0.87640    0.29993    1.000
    H9       H        0.31440    0.02600    0.28020    1.000
    C18      C        0.31020    0.44130    0.36026    1.000
    H10      H        0.31020    0.29610    0.38200    1.000
    C19      C        0.11940    0.83220    0.48997    1.000
    H11      H        0.08110    0.94900    0.46290    1.000
    C20      C        0.40030    0.70820    0.29927    1.000
    C21      C        0.20330    0.70870    0.59002    1.000
    C22      C        0.23520    0.48850    0.56916    1.000
    H12      H        0.27470    0.37260    0.59610    1.000
    C23      C        0.22010    0.82660    0.32938    1.000
    H13      H        0.15880    0.93890    0.32930    1.000
    C24      C        0.14760    0.88080    0.55061    1.000
    H14      H        0.12870    0.03270    0.56520    1.000
    C25      C        0.20870    0.43890    0.50820    1.000
    H15      H        0.23160    0.29090    0.49320    1.000
    C26      C        0.22660    0.76210    0.65551    1.000
    C27      C        0.39930    0.49050    0.32945    1.000
    H16      H        0.45960    0.37600    0.32890    1.000
    C28      C        0.49300    0.75890    0.26226    1.000
    O13      O        0.50581    0.80800    0.87093    1.000
    O14      O        0.58642    0.22200    0.89030    1.000
    C29      C        0.64860    0.89130    0.97006    1.000
    C30      C        0.72110    0.89180    0.85865    1.000
    Ca3      Ca       0.36301    0.75684    0.77865    1.000
    S3       S        0.60313    0.96577    0.89401    1.000
    O15      O        0.74026    0.91430    0.19111    1.000
    O16      O        0.73650    0.52300    0.17232    1.000
    O17      O        0.01230    0.52400    0.75298    1.000
    O18      O        0.04127    0.91920    0.74402    1.000
    C31      C        0.81210    0.62360    0.79993    1.000
    H17      H        0.81440    0.47400    0.78020    1.000
    C32      C        0.81020    0.05870    0.86026    1.000
    H18      H        0.81020    0.20390    0.88200    1.000
    C33      C        0.61940    0.66780    0.98997    1.000
    H19      H        0.58110    0.55100    0.96290    1.000
    C34      C        0.90030    0.79180    0.79927    1.000
    C35      C        0.70330    0.79130    0.09002    1.000
    C36      C        0.73520    0.01150    0.06916    1.000
    H20      H        0.77470    0.12740    0.09610    1.000
    C37      C        0.72010    0.67340    0.82938    1.000
    H21      H        0.65880    0.56110    0.82930    1.000
    C38      C        0.64760    0.61920    0.05061    1.000
    H22      H        0.62870    0.46730    0.06520    1.000
    C39      C        0.70870    0.06110    0.00820    1.000
    H23      H        0.73160    0.20910    0.99320    1.000
    C40      C        0.72660    0.73790    0.15551    1.000
    C41      C        0.89930    0.00950    0.82945    1.000
    H24      H        0.95960    0.12400    0.82890    1.000
    C42      C        0.99300    0.74110    0.76226    1.000
    O19      O        0.99419    0.30800    0.62907    1.000
    O20      O        0.91358    0.72200    0.60970    1.000
    C43      C        0.85140    0.39130    0.52994    1.000
    C44      C        0.77890    0.39180    0.64135    1.000
    Ca4      Ca       0.13699    0.25684    0.72135    1.000
    S4       S        0.89687    0.46577    0.60599    1.000
    O21      O        0.75974    0.41430    0.30889    1.000
    O22      O        0.76350    0.02300    0.32768    1.000
    O23      O        0.48770    0.02400    0.74702    1.000
    O24      O        0.45873    0.41920    0.75598    1.000
    C45      C        0.68790    0.12360    0.70007    1.000
    H25      H        0.68560    0.97400    0.71980    1.000
    C46      C        0.68980    0.55870    0.63974    1.000
    H26      H        0.68980    0.70390    0.61800    1.000
    C47      C        0.88060    0.16780    0.51003    1.000
    H27      H        0.91890    0.05100    0.53710    1.000
    C48      C        0.59970    0.29180    0.70073    1.000
    C49      C        0.79670    0.29130    0.40998    1.000
    C50      C        0.76480    0.51150    0.43084    1.000
    H28      H        0.72530    0.62740    0.40390    1.000
    C51      C        0.77990    0.17340    0.67062    1.000
    H29      H        0.84120    0.06110    0.67070    1.000
    C52      C        0.85240    0.11920    0.44939    1.000
    H30      H        0.87130    0.96730    0.43480    1.000
    C53      C        0.79130    0.56110    0.49180    1.000
    H31      H        0.76840    0.70910    0.50680    1.000
    C54      C        0.77340    0.23790    0.34449    1.000
    C55      C        0.60070    0.50950    0.67055    1.000
    H32      H        0.54040    0.62400    0.67110    1.000
    C56      C        0.50700    0.24110    0.73774    1.000
