# CIF file generated by openbabel 3.1.0, see https://openbabel.org
data_I
_chemical_name_common 'WIHCUM_clean'
_cell_length_a 5.7328
_cell_length_b 10.9152
_cell_length_c 11.2665
_cell_angle_alpha 90
_cell_angle_beta 97.106
_cell_angle_gamma 90
_space_group_name_H-M_alt 'P 1'
_space_group_name_Hall 'P 1'
loop_
    _symmetry_equiv_pos_as_xyz
    x,y,z
loop_
    _atom_site_label
    _atom_site_type_symbol
    _atom_site_fract_x
    _atom_site_fract_y
    _atom_site_fract_z
    _atom_site_occupancy
    Na1      Na       0.77200    0.90558    0.74548    1.000
    Na2      Na       0.02409    0.59468    0.76522    1.000
    Na3      Na       0.27200    0.09442    0.74548    1.000
    Na4      Na       0.52409    0.40532    0.76522    1.000
    H1       H        0.75990    0.54150    0.04570    1.000
    H2       H        0.61170    0.62860    0.12240    1.000
    H3       H        0.02690    0.65510    0.17000    1.000
    H4       H        0.04050    0.70170    0.03680    1.000
    H5       H        0.92460    0.70630    0.38940    1.000
    H6       H        0.75860    0.77500    0.47210    1.000
    H7       H        0.15680    0.88530    0.38470    1.000
    H8       H        0.98980    0.95490    0.46680    1.000
    H9       H        0.18400    0.91600    0.89800    1.000
    H10      H        0.07400    0.01400    0.92800    1.000
    H11      H        0.60900    0.59400    0.61200    1.000
    H12      H        0.70300    0.51200    0.56900    1.000
    H13      H        0.25990    0.45850    0.04570    1.000
    H14      H        0.11170    0.37140    0.12240    1.000
    H15      H        0.52690    0.34490    0.17000    1.000
    H16      H        0.54050    0.29830    0.03680    1.000
    H17      H        0.42460    0.29370    0.38940    1.000
    H18      H        0.25860    0.22500    0.47210    1.000
    H19      H        0.65680    0.11470    0.38470    1.000
    H20      H        0.48980    0.04510    0.46680    1.000
    H21      H        0.68400    0.08400    0.89800    1.000
    H22      H        0.57400    0.98600    0.92800    1.000
    H23      H        0.10900    0.40600    0.61200    1.000
    H24      H        0.20300    0.48800    0.56900    1.000
    C1       C        0.71620    0.62780    0.05870    1.000
    C2       C        0.93990    0.70020    0.10220    1.000
    C3       C        0.85710    0.78680    0.40680    1.000
    C4       C        0.05570    0.87410    0.44900    1.000
    C5       C        0.21620    0.37220    0.05870    1.000
    C6       C        0.43990    0.29980    0.10220    1.000
    C7       C        0.35710    0.21320    0.40680    1.000
    C8       C        0.55570    0.12590    0.44900    1.000
    S1       S        0.55708    0.68535    0.92415    1.000
    S2       S        0.89874    0.85686    0.14969    1.000
    S3       S        0.67117    0.84017    0.27364    1.000
    S4       S        0.22768    0.81676    0.57943    1.000
    S5       S        0.05708    0.31465    0.92415    1.000
    S6       S        0.39874    0.14314    0.14969    1.000
    S7       S        0.17117    0.15983    0.27364    1.000
    S8       S        0.72768    0.18324    0.57943    1.000
    O1       O        0.40400    0.58456    0.87786    1.000
    O2       O        0.73130    0.71614    0.84467    1.000
    O3       O        0.42400    0.79128    0.95658    1.000
    O4       O        0.06360    0.78428    0.66323    1.000
    O5       O        0.38980    0.91483    0.62452    1.000
    O6       O        0.35230    0.71000    0.53982    1.000
    O7       O        0.09350    0.96640    0.88078    1.000
    O8       O        0.69350    0.54154    0.62980    1.000
    O9       O        0.90400    0.41544    0.87786    1.000
    O10      O        0.23130    0.28386    0.84467    1.000
    O11      O        0.92400    0.20872    0.95658    1.000
    O12      O        0.56360    0.21572    0.66323    1.000
    O13      O        0.88980    0.08517    0.62452    1.000
    O14      O        0.85230    0.29000    0.53982    1.000
    O15      O        0.59350    0.03360    0.88078    1.000
    O16      O        0.19350    0.45846    0.62980    1.000
