# CIF file generated by openbabel 3.1.0, see https://openbabel.org
data_I
_chemical_name_common 'image0'
_cell_length_a 11.446
_cell_length_b 19.909
_cell_length_c 11.82
_cell_angle_alpha 90
_cell_angle_beta 106.098
_cell_angle_gamma 90
_space_group_name_H-M_alt 'P 1'
_space_group_name_Hall 'P 1'
loop_
    _symmetry_equiv_pos_as_xyz
    x,y,z
loop_
    _atom_site_label
    _atom_site_type_symbol
    _atom_site_fract_x
    _atom_site_fract_y
    _atom_site_fract_z
    _atom_site_occupancy
    C1       C        0.02420    0.21460    0.32720    1.000
    C2       C        0.03070    0.28910    0.34910    1.000
    C3       C        0.03050    0.31350    0.45860    1.000
    H1       H        0.02680    0.28370    0.51810    1.000
    C4       C        0.03570    0.38180    0.48040    1.000
    C5       C        0.03770    0.42670    0.39210    1.000
    H2       H        0.03690    0.47280    0.40520    1.000
    C6       C        0.04090    0.40200    0.28360    1.000
    C7       C        0.03650    0.33400    0.26120    1.000
    H3       H        0.03730    0.31830    0.18730    1.000
    C8       C        0.03970    0.45020    0.18690    1.000
    C9       C        0.23390    0.05170    0.33340    1.000
    H4       H        0.17740    0.03170    0.27030    1.000
    C10      C        0.35110    0.05400    0.32770    1.000
    H5       H        0.37030    0.03770    0.26140    1.000
    C11      C        0.40270    0.10370    0.51070    1.000
    H6       H        0.45840    0.12240    0.57580    1.000
    C12      C        0.28280    0.09990    0.50720    1.000
    H7       H        0.26170    0.11620    0.57260    1.000
    C13      C        0.65870    0.11320    0.50210    1.000
    H8       H        0.63750    0.13550    0.56270    1.000
    C14      C        0.44070    0.08020    0.41890    1.000
    C15      C        0.57420    0.08170    0.41760    1.000
    C16      C        0.60820    0.05110    0.32880    1.000
    H9       H        0.55130    0.02870    0.26920    1.000
    C17      C        0.72680    0.05400    0.32890    1.000
    H10      H        0.74870    0.03480    0.26600    1.000
    C18      C        0.77680    0.11210    0.49780    1.000
    H11      H        0.83520    0.13330    0.55770    1.000
    N1       N        0.81230    0.08235    0.41280    1.000
    N2       N        0.19260    0.07519    0.42040    1.000
    O1       O        0.00460    0.17885    0.40680    1.000
    O2       O        0.03670    0.19276    0.23520    1.000
    O3       O        0.05200    0.42801    0.09210    1.000
    O4       O        0.02820    0.51191    0.20750    1.000
    O5       O        0.03590    0.40687    0.58750    1.000
    Zn1      Zn       0.00460    0.08133    0.41717    1.000
    C19      C        0.97580    0.71460    0.17280    1.000
    C20      C        0.96930    0.78910    0.15090    1.000
    C21      C        0.96950    0.81350    0.04140    1.000
    H12      H        0.97320    0.78370    0.98190    1.000
    C22      C        0.96430    0.88180    0.01960    1.000
    C23      C        0.96230    0.92670    0.10790    1.000
    H13      H        0.96310    0.97280    0.09480    1.000
    C24      C        0.95910    0.90200    0.21640    1.000
    C25      C        0.96350    0.83400    0.23880    1.000
    H14      H        0.96270    0.81830    0.31270    1.000
    C26      C        0.96030    0.95020    0.31310    1.000
    C27      C        0.76610    0.55170    0.16660    1.000
    H15      H        0.82260    0.53170    0.22970    1.000
    C28      C        0.64890    0.55400    0.17230    1.000
    H16      H        0.62970    0.53770    0.23860    1.000
    C29      C        0.59730    0.60370    0.98930    1.000
    H17      H        0.54160    0.62240    0.92420    1.000
    C30      C        0.71720    0.59990    0.99280    1.000
    H18      H        0.73830    0.61620    0.92740    1.000
    C31      C        0.34130    0.61320    0.99790    1.000
    H19      H        0.36250    0.63550    0.93730    1.000
    C32      C        0.55930    0.58020    0.08110    1.000
    C33      C        0.42580    0.58170    0.08240    1.000
    C34      C        0.39180    0.55110    0.17120    1.000
    H20      H        0.44870    0.52870    0.23080    1.000
    C35      C        0.27320    0.55400    0.17110    1.000
    H21      H        0.25130    0.53480    0.23400    1.000
    C36      C        0.22320    0.61210    0.00220    1.000
    H22      H        0.16480    0.63330    0.94230    1.000
    N3       N        0.18770    0.58235    0.08720    1.000
    N4       N        0.80740    0.57519    0.07960    1.000
    O6       O        0.99540    0.67885    0.09320    1.000
    O7       O        0.96330    0.69276    0.26480    1.000
    O8       O        0.94800    0.92801    0.40790    1.000
    O9       O        0.97180    0.01191    0.29250    1.000
    O10      O        0.96410    0.90687    0.91250    1.000
    Zn2      Zn       0.99540    0.58133    0.08283    1.000
    C37      C        0.97580    0.78540    0.67280    1.000
    C38      C        0.96930    0.71090    0.65090    1.000
    C39      C        0.96950    0.68650    0.54140    1.000
    H23      H        0.97320    0.71630    0.48190    1.000
    C40      C        0.96430    0.61820    0.51960    1.000
    C41      C        0.96230    0.57330    0.60790    1.000
    H24      H        0.96310    0.52720    0.59480    1.000
    C42      C        0.95910    0.59800    0.71640    1.000
    C43      C        0.96350    0.66600    0.73880    1.000
    H25      H        0.96270    0.68170    0.81270    1.000
    C44      C        0.96030    0.54980    0.81310    1.000
    C45      C        0.76610    0.94830    0.66660    1.000
    H26      H        0.82260    0.96830    0.72970    1.000
    C46      C        0.64890    0.94600    0.67230    1.000
    H27      H        0.62970    0.96230    0.73860    1.000
    C47      C        0.59730    0.89630    0.48930    1.000
    H28      H        0.54160    0.87760    0.42420    1.000
    C48      C        0.71720    0.90010    0.49280    1.000
    H29      H        0.73830    0.88380    0.42740    1.000
    C49      C        0.34130    0.88680    0.49790    1.000
    H30      H        0.36250    0.86450    0.43730    1.000
    C50      C        0.55930    0.91980    0.58110    1.000
    C51      C        0.42580    0.91830    0.58240    1.000
    C52      C        0.39180    0.94890    0.67120    1.000
    H31      H        0.44870    0.97130    0.73080    1.000
    C53      C        0.27320    0.94600    0.67110    1.000
    H32      H        0.25130    0.96520    0.73400    1.000
    C54      C        0.22320    0.88790    0.50220    1.000
    H33      H        0.16480    0.86670    0.44230    1.000
    N5       N        0.18770    0.91765    0.58720    1.000
    N6       N        0.80740    0.92481    0.57960    1.000
    O11      O        0.99540    0.82115    0.59320    1.000
    O12      O        0.96330    0.80724    0.76480    1.000
    O13      O        0.94800    0.57199    0.90790    1.000
    O14      O        0.97180    0.48809    0.79250    1.000
    O15      O        0.96410    0.59313    0.41250    1.000
    Zn3      Zn       0.99540    0.91867    0.58283    1.000
    C55      C        0.02420    0.28540    0.82720    1.000
    C56      C        0.03070    0.21090    0.84910    1.000
    C57      C        0.03050    0.18650    0.95860    1.000
    H34      H        0.02680    0.21630    0.01810    1.000
    C58      C        0.03570    0.11820    0.98040    1.000
    C59      C        0.03770    0.07330    0.89210    1.000
    H35      H        0.03690    0.02720    0.90520    1.000
    C60      C        0.04090    0.09800    0.78360    1.000
    C61      C        0.03650    0.16600    0.76120    1.000
    H36      H        0.03730    0.18170    0.68730    1.000
    C62      C        0.03970    0.04980    0.68690    1.000
    C63      C        0.23390    0.44830    0.83340    1.000
    H37      H        0.17740    0.46830    0.77030    1.000
    C64      C        0.35110    0.44600    0.82770    1.000
    H38      H        0.37030    0.46230    0.76140    1.000
    C65      C        0.40270    0.39630    0.01070    1.000
    H39      H        0.45840    0.37760    0.07580    1.000
    C66      C        0.28280    0.40010    0.00720    1.000
    H40      H        0.26170    0.38380    0.07260    1.000
    C67      C        0.65870    0.38680    0.00210    1.000
    H41      H        0.63750    0.36450    0.06270    1.000
    C68      C        0.44070    0.41980    0.91890    1.000
    C69      C        0.57420    0.41830    0.91760    1.000
    C70      C        0.60820    0.44890    0.82880    1.000
    H42      H        0.55130    0.47130    0.76920    1.000
    C71      C        0.72680    0.44600    0.82890    1.000
    H43      H        0.74870    0.46520    0.76600    1.000
    C72      C        0.77680    0.38790    0.99780    1.000
    H44      H        0.83520    0.36670    0.05770    1.000
    N7       N        0.81230    0.41765    0.91280    1.000
    N8       N        0.19260    0.42481    0.92040    1.000
    O16      O        0.00460    0.32115    0.90680    1.000
    O17      O        0.03670    0.30724    0.73520    1.000
    O18      O        0.05200    0.07199    0.59210    1.000
    O19      O        0.02820    0.98809    0.70750    1.000
    O20      O        0.03590    0.09313    0.08750    1.000
    Zn4      Zn       0.00460    0.41867    0.91717    1.000
