# CIF file generated by openbabel 3.1.0, see https://openbabel.org
data_I
_chemical_name_common 'image0'
_cell_length_a 15.3959
_cell_length_b 17.3775
_cell_length_c 15.0543
_cell_angle_alpha 90
_cell_angle_beta 120.42
_cell_angle_gamma 90
_space_group_name_H-M_alt 'P 1'
_space_group_name_Hall 'P 1'
loop_
    _symmetry_equiv_pos_as_xyz
    x,y,z
loop_
    _atom_site_label
    _atom_site_type_symbol
    _atom_site_fract_x
    _atom_site_fract_y
    _atom_site_fract_z
    _atom_site_occupancy
    Cd1      Cd       0.86611    0.63271    0.71430    1.000
    Br1      Br       0.53698    0.59895    0.12981    1.000
    Br2      Br       0.13792    0.63254    0.30796    1.000
    O1       O        0.90470    0.49280    0.57170    1.000
    O2       O        0.78440    0.57630    0.55000    1.000
    O3       O        0.94900    0.67050    0.88260    1.000
    O4       O        0.07620    0.71380    0.86560    1.000
    H1       H        0.02630    0.52930    0.80630    1.000
    N1       N        0.78130    0.45540    0.26470    1.000
    N2       N        0.23870    0.77940    0.16690    1.000
    C1       C        0.81930    0.46860    0.36480    1.000
    H2       H        0.87790    0.44300    0.41160    1.000
    C2       C        0.69800    0.49320    0.19720    1.000
    H3       H        0.67050    0.48440    0.12700    1.000
    C3       C        0.65250    0.54470    0.22960    1.000
    C4       C        0.69060    0.55960    0.33340    1.000
    H4       H        0.66040    0.59520    0.35550    1.000
    C5       C        0.77540    0.51920    0.40240    1.000
    C6       C        0.82570    0.53060    0.51830    1.000
    C7       C        0.17610    0.76560    0.06640    1.000
    H5       H        0.18570    0.79220    0.01840    1.000
    C8       C        0.22450    0.74050    0.23510    1.000
    H6       H        0.26770    0.74950    0.30500    1.000
    C9       C        0.14830    0.68790    0.20530    1.000
    C10      C        0.08200    0.67440    0.10270    1.000
    H7       H        0.02850    0.64030    0.08170    1.000
    C11      C        0.09760    0.71340    0.03150    1.000
    C12      C        0.03520    0.69780    0.91660    1.000
    Cd2      Cd       0.36611    0.13271    0.71430    1.000
    Br3      Br       0.03698    0.09895    0.12981    1.000
    Br4      Br       0.63792    0.13254    0.30796    1.000
    O5       O        0.40470    0.99280    0.57170    1.000
    O6       O        0.28440    0.07630    0.55000    1.000
    O7       O        0.44900    0.17050    0.88260    1.000
    O8       O        0.57620    0.21380    0.86560    1.000
    H8       H        0.52630    0.02930    0.80630    1.000
    N3       N        0.28130    0.95540    0.26470    1.000
    N4       N        0.73870    0.27940    0.16690    1.000
    C13      C        0.31930    0.96860    0.36480    1.000
    H9       H        0.37790    0.94300    0.41160    1.000
    C14      C        0.19800    0.99320    0.19720    1.000
    H10      H        0.17050    0.98440    0.12700    1.000
    C15      C        0.15250    0.04470    0.22960    1.000
    C16      C        0.19060    0.05960    0.33340    1.000
    H11      H        0.16040    0.09520    0.35550    1.000
    C17      C        0.27540    0.01920    0.40240    1.000
    C18      C        0.32570    0.03060    0.51830    1.000
    C19      C        0.67610    0.26560    0.06640    1.000
    H12      H        0.68570    0.29220    0.01840    1.000
    C20      C        0.72450    0.24050    0.23510    1.000
    H13      H        0.76770    0.24950    0.30500    1.000
    C21      C        0.64830    0.18790    0.20530    1.000
    C22      C        0.58200    0.17440    0.10270    1.000
    H14      H        0.52850    0.14030    0.08170    1.000
    C23      C        0.59760    0.21340    0.03150    1.000
    C24      C        0.53520    0.19780    0.91660    1.000
    Cd3      Cd       0.13389    0.63271    0.78570    1.000
    Br5      Br       0.46302    0.59895    0.37019    1.000
    Br6      Br       0.86208    0.63254    0.19204    1.000
    O9       O        0.09530    0.49280    0.92830    1.000
    O10      O        0.21560    0.57630    0.95000    1.000
    O11      O        0.05100    0.67050    0.61740    1.000
    O12      O        0.92380    0.71380    0.63440    1.000
    H15      H        0.97370    0.52930    0.69370    1.000
    N5       N        0.21870    0.45540    0.23530    1.000
    N6       N        0.76130    0.77940    0.33310    1.000
    C25      C        0.18070    0.46860    0.13520    1.000
    H16      H        0.12210    0.44300    0.08840    1.000
    C26      C        0.30200    0.49320    0.30280    1.000
    H17      H        0.32950    0.48440    0.37300    1.000
    C27      C        0.34750    0.54470    0.27040    1.000
    C28      C        0.30940    0.55960    0.16660    1.000
    H18      H        0.33960    0.59520    0.14450    1.000
    C29      C        0.22460    0.51920    0.09760    1.000
    C30      C        0.17430    0.53060    0.98170    1.000
    C31      C        0.82390    0.76560    0.43360    1.000
    H19      H        0.81430    0.79220    0.48160    1.000
    C32      C        0.77550    0.74050    0.26490    1.000
    H20      H        0.73230    0.74950    0.19500    1.000
    C33      C        0.85170    0.68790    0.29470    1.000
    C34      C        0.91800    0.67440    0.39730    1.000
    H21      H        0.97150    0.64030    0.41830    1.000
    C35      C        0.90240    0.71340    0.46850    1.000
    C36      C        0.96480    0.69780    0.58340    1.000
    Cd4      Cd       0.63389    0.13271    0.78570    1.000
    Br7      Br       0.96302    0.09895    0.37019    1.000
    Br8      Br       0.36208    0.13254    0.19204    1.000
    O13      O        0.59530    0.99280    0.92830    1.000
    O14      O        0.71560    0.07630    0.95000    1.000
    O15      O        0.55100    0.17050    0.61740    1.000
    O16      O        0.42380    0.21380    0.63440    1.000
    H22      H        0.47370    0.02930    0.69370    1.000
    N7       N        0.71870    0.95540    0.23530    1.000
    N8       N        0.26130    0.27940    0.33310    1.000
    C37      C        0.68070    0.96860    0.13520    1.000
    H23      H        0.62210    0.94300    0.08840    1.000
    C38      C        0.80200    0.99320    0.30280    1.000
    H24      H        0.82950    0.98440    0.37300    1.000
    C39      C        0.84750    0.04470    0.27040    1.000
    C40      C        0.80940    0.05960    0.16660    1.000
    H25      H        0.83960    0.09520    0.14450    1.000
    C41      C        0.72460    0.01920    0.09760    1.000
    C42      C        0.67430    0.03060    0.98170    1.000
    C43      C        0.32390    0.26560    0.43360    1.000
    H26      H        0.31430    0.29220    0.48160    1.000
    C44      C        0.27550    0.24050    0.26490    1.000
    H27      H        0.23230    0.24950    0.19500    1.000
    C45      C        0.35170    0.18790    0.29470    1.000
    C46      C        0.41800    0.17440    0.39730    1.000
    H28      H        0.47150    0.14030    0.41830    1.000
    C47      C        0.40240    0.21340    0.46850    1.000
    C48      C        0.46480    0.19780    0.58340    1.000
    Cd5      Cd       0.13389    0.36729    0.28570    1.000
    Br9      Br       0.46302    0.40105    0.87019    1.000
    Br10     Br       0.86208    0.36746    0.69204    1.000
    O17      O        0.09530    0.50720    0.42830    1.000
    O18      O        0.21560    0.42370    0.45000    1.000
    O19      O        0.05100    0.32950    0.11740    1.000
    O20      O        0.92380    0.28620    0.13440    1.000
    H29      H        0.97370    0.47070    0.19370    1.000
    N9       N        0.21870    0.54460    0.73530    1.000
    N10      N        0.76130    0.22060    0.83310    1.000
    C49      C        0.18070    0.53140    0.63520    1.000
    H30      H        0.12210    0.55700    0.58840    1.000
    C50      C        0.30200    0.50680    0.80280    1.000
    H31      H        0.32950    0.51560    0.87300    1.000
    C51      C        0.34750    0.45530    0.77040    1.000
    C52      C        0.30940    0.44040    0.66660    1.000
    H32      H        0.33960    0.40480    0.64450    1.000
    C53      C        0.22460    0.48080    0.59760    1.000
    C54      C        0.17430    0.46940    0.48170    1.000
    C55      C        0.82390    0.23440    0.93360    1.000
    H33      H        0.81430    0.20780    0.98160    1.000
    C56      C        0.77550    0.25950    0.76490    1.000
    H34      H        0.73230    0.25050    0.69500    1.000
    C57      C        0.85170    0.31210    0.79470    1.000
    C58      C        0.91800    0.32560    0.89730    1.000
    H35      H        0.97150    0.35970    0.91830    1.000
    C59      C        0.90240    0.28660    0.96850    1.000
    C60      C        0.96480    0.30220    0.08340    1.000
    Cd6      Cd       0.63389    0.86729    0.28570    1.000
    Br11     Br       0.96302    0.90105    0.87019    1.000
    Br12     Br       0.36208    0.86746    0.69204    1.000
    O21      O        0.59530    0.00720    0.42830    1.000
    O22      O        0.71560    0.92370    0.45000    1.000
    O23      O        0.55100    0.82950    0.11740    1.000
    O24      O        0.42380    0.78620    0.13440    1.000
    H36      H        0.47370    0.97070    0.19370    1.000
    N11      N        0.71870    0.04460    0.73530    1.000
    N12      N        0.26130    0.72060    0.83310    1.000
    C61      C        0.68070    0.03140    0.63520    1.000
    H37      H        0.62210    0.05700    0.58840    1.000
    C62      C        0.80200    0.00680    0.80280    1.000
    H38      H        0.82950    0.01560    0.87300    1.000
    C63      C        0.84750    0.95530    0.77040    1.000
    C64      C        0.80940    0.94040    0.66660    1.000
    H39      H        0.83960    0.90480    0.64450    1.000
    C65      C        0.72460    0.98080    0.59760    1.000
    C66      C        0.67430    0.96940    0.48170    1.000
    C67      C        0.32390    0.73440    0.93360    1.000
    H40      H        0.31430    0.70780    0.98160    1.000
    C68      C        0.27550    0.75950    0.76490    1.000
    H41      H        0.23230    0.75050    0.69500    1.000
    C69      C        0.35170    0.81210    0.79470    1.000
    C70      C        0.41800    0.82560    0.89730    1.000
    H42      H        0.47150    0.85970    0.91830    1.000
    C71      C        0.40240    0.78660    0.96850    1.000
    C72      C        0.46480    0.80220    0.08340    1.000
    Cd7      Cd       0.86611    0.36729    0.21430    1.000
    Br13     Br       0.53698    0.40105    0.62981    1.000
    Br14     Br       0.13792    0.36746    0.80796    1.000
    O25      O        0.90470    0.50720    0.07170    1.000
    O26      O        0.78440    0.42370    0.05000    1.000
    O27      O        0.94900    0.32950    0.38260    1.000
    O28      O        0.07620    0.28620    0.36560    1.000
    H43      H        0.02630    0.47070    0.30630    1.000
    N13      N        0.78130    0.54460    0.76470    1.000
    N14      N        0.23870    0.22060    0.66690    1.000
    C73      C        0.81930    0.53140    0.86480    1.000
    H44      H        0.87790    0.55700    0.91160    1.000
    C74      C        0.69800    0.50680    0.69720    1.000
    H45      H        0.67050    0.51560    0.62700    1.000
    C75      C        0.65250    0.45530    0.72960    1.000
    C76      C        0.69060    0.44040    0.83340    1.000
    H46      H        0.66040    0.40480    0.85550    1.000
    C77      C        0.77540    0.48080    0.90240    1.000
    C78      C        0.82570    0.46940    0.01830    1.000
    C79      C        0.17610    0.23440    0.56640    1.000
    H47      H        0.18570    0.20780    0.51840    1.000
    C80      C        0.22450    0.25950    0.73510    1.000
    H48      H        0.26770    0.25050    0.80500    1.000
    C81      C        0.14830    0.31210    0.70530    1.000
    C82      C        0.08200    0.32560    0.60270    1.000
    H49      H        0.02850    0.35970    0.58170    1.000
    C83      C        0.09760    0.28660    0.53150    1.000
    C84      C        0.03520    0.30220    0.41660    1.000
    Cd8      Cd       0.36611    0.86729    0.21430    1.000
    Br15     Br       0.03698    0.90105    0.62981    1.000
    Br16     Br       0.63792    0.86746    0.80796    1.000
    O29      O        0.40470    0.00720    0.07170    1.000
    O30      O        0.28440    0.92370    0.05000    1.000
    O31      O        0.44900    0.82950    0.38260    1.000
    O32      O        0.57620    0.78620    0.36560    1.000
    H50      H        0.52630    0.97070    0.30630    1.000
    N15      N        0.28130    0.04460    0.76470    1.000
    N16      N        0.73870    0.72060    0.66690    1.000
    C85      C        0.31930    0.03140    0.86480    1.000
    H51      H        0.37790    0.05700    0.91160    1.000
    C86      C        0.19800    0.00680    0.69720    1.000
    H52      H        0.17050    0.01560    0.62700    1.000
    C87      C        0.15250    0.95530    0.72960    1.000
    C88      C        0.19060    0.94040    0.83340    1.000
    H53      H        0.16040    0.90480    0.85550    1.000
    C89      C        0.27540    0.98080    0.90240    1.000
    C90      C        0.32570    0.96940    0.01830    1.000
    C91      C        0.67610    0.73440    0.56640    1.000
    H54      H        0.68570    0.70780    0.51840    1.000
    C92      C        0.72450    0.75950    0.73510    1.000
    H55      H        0.76770    0.75050    0.80500    1.000
    C93      C        0.64830    0.81210    0.70530    1.000
    C94      C        0.58200    0.82560    0.60270    1.000
    H56      H        0.52850    0.85970    0.58170    1.000
    C95      C        0.59760    0.78660    0.53150    1.000
    C96      C        0.53520    0.80220    0.41660    1.000
    O33      O        0.00000    0.55420    0.75000    1.000
    O34      O        0.50000    0.05420    0.75000    1.000
    O35      O        0.00000    0.44580    0.25000    1.000
    O36      O        0.50000    0.94580    0.25000    1.000
