# CIF file generated by openbabel 3.1.0, see https://openbabel.org
data_I
_chemical_name_common 'DONNEA_clean'
_cell_length_a 6.7261
_cell_length_b 11.0455
_cell_length_c 11.0455
_cell_angle_alpha 119.896
_cell_angle_beta 105.951
_cell_angle_gamma 74.0486
_space_group_name_H-M_alt 'P 1'
_space_group_name_Hall 'P 1'
loop_
    _symmetry_equiv_pos_as_xyz
    x,y,z
loop_
    _atom_site_label
    _atom_site_type_symbol
    _atom_site_fract_x
    _atom_site_fract_y
    _atom_site_fract_z
    _atom_site_occupancy
    Ga1      Ga       0.00000    0.00000    0.00000    1.000
    Ga2      Ga       0.50000    0.00000    0.00000    1.000
    H1       H        0.28280    0.95560    0.59760    1.000
    H2       H        0.84230    0.02360    0.60840    1.000
    H3       H        0.21720    0.59760    0.95560    1.000
    H4       H        0.65770    0.60840    0.02360    1.000
    H5       H        0.71720    0.04440    0.40240    1.000
    H6       H        0.15770    0.97640    0.39160    1.000
    H7       H        0.78280    0.40240    0.04440    1.000
    H8       H        0.34230    0.39160    0.97640    1.000
    H9       H        0.75000    0.15160    0.15160    1.000
    H10      H        0.25000    0.84840    0.84840    1.000
    C1       C        0.65740    0.97320    0.75820    1.000
    C2       C        0.57720    0.98660    0.62400    1.000
    C3       C        0.37080    0.97320    0.55840    1.000
    C4       C        0.70410    0.01380    0.56480    1.000
    C5       C        0.84260    0.75820    0.97320    1.000
    C6       C        0.92280    0.62400    0.98660    1.000
    C7       C        0.12920    0.55840    0.97320    1.000
    C8       C        0.79590    0.56480    0.01380    1.000
    C9       C        0.34260    0.02680    0.24180    1.000
    C10      C        0.42280    0.01340    0.37600    1.000
    C11      C        0.62920    0.02680    0.44160    1.000
    C12      C        0.29590    0.98620    0.43520    1.000
    C13      C        0.15740    0.24180    0.02680    1.000
    C14      C        0.07720    0.37600    0.01340    1.000
    C15      C        0.87080    0.44160    0.02680    1.000
    C16      C        0.20410    0.43520    0.98620    1.000
    O1       O        0.84520    0.98870    0.81330    1.000
    O2       O        0.53180    0.94670    0.80410    1.000
    O3       O        0.65480    0.81330    0.98870    1.000
    O4       O        0.96820    0.80410    0.94670    1.000
    O5       O        0.15480    0.01130    0.18670    1.000
    O6       O        0.46820    0.05330    0.19590    1.000
    O7       O        0.34520    0.18670    0.01130    1.000
    O8       O        0.03180    0.19590    0.05330    1.000
    O9       O        0.75000    0.07850    0.07850    1.000
    O10      O        0.25000    0.92150    0.92150    1.000
