# CIF file generated by openbabel 3.1.0, see https://openbabel.org
data_I
_chemical_name_common 'image0'
_cell_length_a 11.192
_cell_length_b 12.401
_cell_length_c 12.566
_cell_angle_alpha 64.424
_cell_angle_beta 75.586
_cell_angle_gamma 80.446
_space_group_name_H-M_alt 'P 1'
_space_group_name_Hall 'P 1'
loop_
    _symmetry_equiv_pos_as_xyz
    x,y,z
loop_
    _atom_site_label
    _atom_site_type_symbol
    _atom_site_fract_x
    _atom_site_fract_y
    _atom_site_fract_z
    _atom_site_occupancy
    Cu1      Cu       0.37734    0.06004    0.41182    1.000
    C1       C        0.00660    0.07870    0.87800    1.000
    C2       C        0.89500    0.02990    0.94990    1.000
    C3       C        0.88820    0.95090    0.07050    1.000
    C4       C        0.01340    0.16400    0.74550    1.000
    H1       H        0.93040    0.18620    0.72920    1.000
    H2       H        0.05000    0.23650    0.72930    1.000
    C5       C        0.18900    0.14390    0.58340    1.000
    H3       H        0.22860    0.21200    0.56410    1.000
    C6       C        0.13850    0.98500    0.58800    1.000
    H4       H        0.13960    0.91960    0.56970    1.000
    C7       C        0.77870    0.06470    0.89790    1.000
    H5       H        0.70670    0.04890    0.96290    1.000
    H6       H        0.77530    0.14980    0.84700    1.000
    C8       C        0.72700    0.03490    0.72990    1.000
    H7       H        0.69610    0.11270    0.68890    1.000
    C9       C        0.78360    0.85110    0.78340    1.000
    H8       H        0.79920    0.77490    0.78380    1.000
    C10      C        0.76790    0.89480    0.14460    1.000
    H9       H        0.72710    0.87720    0.09470    1.000
    H10      H        0.78510    0.81990    0.21040    1.000
    C11      C        0.57620    0.95270    0.26940    1.000
    H11      H        0.53710    0.88180    0.29960    1.000
    C12      C        0.61950    0.12730    0.23050    1.000
    H12      H        0.61330    0.20300    0.23040    1.000
    C13      C        0.55820    0.33760    0.41150    1.000
    C14      C        0.66460    0.36260    0.43310    1.000
    H13      H        0.72030    0.30040    0.46860    1.000
    C15      C        0.68740    0.47990    0.40190    1.000
    C16      C        0.60220    0.57220    0.35000    1.000
    H14      H        0.61690    0.65100    0.32970    1.000
    C17      C        0.49630    0.54830    0.32830    1.000
    C18      C        0.47500    0.43080    0.35970    1.000
    H15      H        0.40380    0.41390    0.34590    1.000
    C19      C        0.53490    0.20930    0.44730    1.000
    C20      C        0.79790    0.51210    0.42630    1.000
    C21      C        0.40600    0.65160    0.27290    1.000
    N1       N        0.22630    0.06650    0.53280    1.000
    N2       N        0.08680    0.10900    0.66530    1.000
    N3       N        0.05280    0.00730    0.66880    1.000
    N4       N        0.72900    0.94380    0.70060    1.000
    N5       N        0.77620    0.99740    0.82740    1.000
    N6       N        0.81300    0.87910    0.86420    1.000
    N7       N        0.53260    0.04720    0.29510    1.000
    N8       N        0.68500    0.97590    0.19350    1.000
    N9       N        0.71400    0.08740    0.16760    1.000
    O1       O        0.43680    0.19300    0.42390    1.000
    O2       O        0.61150    0.12960    0.49510    1.000
    O3       O        0.87820    0.42700    0.46930    1.000
    O4       O        0.80950    0.61690    0.40630    1.000
    O5       O        0.43440    0.75450    0.24800    1.000
    O6       O        0.31170    0.62930    0.25220    1.000
    Cu2      Cu       0.62266    0.93996    0.58818    1.000
    C22      C        0.99340    0.92130    0.12200    1.000
    C23      C        0.10500    0.97010    0.05010    1.000
    C24      C        0.11180    0.04910    0.92950    1.000
    C25      C        0.98660    0.83600    0.25450    1.000
    H16      H        0.06960    0.81380    0.27080    1.000
    H17      H        0.95000    0.76350    0.27070    1.000
    C26      C        0.81100    0.85610    0.41660    1.000
    H18      H        0.77140    0.78800    0.43590    1.000
    C27      C        0.86150    0.01500    0.41200    1.000
    H19      H        0.86040    0.08040    0.43030    1.000
    C28      C        0.22130    0.93530    0.10210    1.000
    H20      H        0.29330    0.95110    0.03710    1.000
    H21      H        0.22470    0.85020    0.15300    1.000
    C29      C        0.27300    0.96510    0.27010    1.000
    H22      H        0.30390    0.88730    0.31110    1.000
    C30      C        0.21640    0.14890    0.21660    1.000
    H23      H        0.20080    0.22510    0.21620    1.000
    C31      C        0.23210    0.10520    0.85540    1.000
    H24      H        0.27290    0.12280    0.90530    1.000
    H25      H        0.21490    0.18010    0.78960    1.000
    C32      C        0.42380    0.04730    0.73060    1.000
    H26      H        0.46290    0.11820    0.70040    1.000
    C33      C        0.38050    0.87270    0.76950    1.000
    H27      H        0.38670    0.79700    0.76960    1.000
    C34      C        0.44180    0.66240    0.58850    1.000
    C35      C        0.33540    0.63740    0.56690    1.000
    H28      H        0.27970    0.69960    0.53140    1.000
    C36      C        0.31260    0.52010    0.59810    1.000
    C37      C        0.39780    0.42780    0.65000    1.000
    H29      H        0.38310    0.34900    0.67030    1.000
    C38      C        0.50370    0.45170    0.67170    1.000
    C39      C        0.52500    0.56920    0.64030    1.000
    H30      H        0.59620    0.58610    0.65410    1.000
    C40      C        0.46510    0.79070    0.55270    1.000
    C41      C        0.20210    0.48790    0.57370    1.000
    C42      C        0.59400    0.34840    0.72710    1.000
    N10      N        0.77370    0.93350    0.46720    1.000
    N11      N        0.91320    0.89100    0.33470    1.000
    N12      N        0.94720    0.99270    0.33120    1.000
    N13      N        0.27100    0.05620    0.29940    1.000
    N14      N        0.22380    0.00260    0.17260    1.000
    N15      N        0.18700    0.12090    0.13580    1.000
    N16      N        0.46740    0.95280    0.70490    1.000
    N17      N        0.31500    0.02410    0.80650    1.000
    N18      N        0.28600    0.91260    0.83240    1.000
    O7       O        0.56320    0.80700    0.57610    1.000
    O8       O        0.38850    0.87040    0.50490    1.000
    O9       O        0.12180    0.57300    0.53070    1.000
    O10      O        0.19050    0.38310    0.59370    1.000
    O11      O        0.56560    0.24550    0.75200    1.000
    O12      O        0.68830    0.37070    0.74780    1.000
    Cu3      Cu       0.00000    0.50000    0.50000    1.000
