# CIF file generated by openbabel 3.1.0, see https://openbabel.org
data_I
_chemical_name_common 'CECVOW_clean'
_cell_length_a 6.751
_cell_length_b 11.916
_cell_length_c 13.457
_cell_angle_alpha 90
_cell_angle_beta 100.427
_cell_angle_gamma 90
_space_group_name_H-M_alt 'P 1'
_space_group_name_Hall 'P 1'
loop_
    _symmetry_equiv_pos_as_xyz
    x,y,z
loop_
    _atom_site_label
    _atom_site_type_symbol
    _atom_site_fract_x
    _atom_site_fract_y
    _atom_site_fract_z
    _atom_site_occupancy
    Nd1      Nd       0.94749    0.83054    0.74493    1.000
    Nd2      Nd       0.05251    0.33054    0.75507    1.000
    Nd3      Nd       0.05251    0.16946    0.25507    1.000
    Nd4      Nd       0.94749    0.66946    0.24493    1.000
    H1       H        0.21100    0.94100    0.54300    1.000
    H2       H        0.54600    0.80800    0.35900    1.000
    H3       H        0.78900    0.44100    0.95700    1.000
    H4       H        0.45400    0.30800    0.14100    1.000
    H5       H        0.78900    0.05900    0.45700    1.000
    H6       H        0.45400    0.19200    0.64100    1.000
    H7       H        0.21100    0.55900    0.04300    1.000
    H8       H        0.54600    0.69200    0.85900    1.000
    C1       C        0.45750    0.89630    0.71910    1.000
    C2       C        0.47310    0.87950    0.61010    1.000
    C3       C        0.31720    0.90390    0.52970    1.000
    C4       C        0.34510    0.87760    0.43390    1.000
    C5       C        0.18180    0.90050    0.34280    1.000
    C6       C        0.52320    0.82650    0.41880    1.000
    C7       C        0.67430    0.81170    0.50190    1.000
    C8       C        0.88180    0.76640    0.49620    1.000
    C9       C        0.54250    0.39630    0.78090    1.000
    C10      C        0.52690    0.37950    0.88990    1.000
    C11      C        0.68280    0.40390    0.97030    1.000
    C12      C        0.65490    0.37760    0.06610    1.000
    C13      C        0.81820    0.40050    0.15720    1.000
    C14      C        0.47680    0.32650    0.08120    1.000
    C15      C        0.32570    0.31170    0.99810    1.000
    C16      C        0.11820    0.26640    0.00380    1.000
    C17      C        0.54250    0.10370    0.28090    1.000
    C18      C        0.52690    0.12050    0.38990    1.000
    C19      C        0.68280    0.09610    0.47030    1.000
    C20      C        0.65490    0.12240    0.56610    1.000
    C21      C        0.81820    0.09950    0.65720    1.000
    C22      C        0.47680    0.17350    0.58120    1.000
    C23      C        0.32570    0.18830    0.49810    1.000
    C24      C        0.11820    0.23360    0.50380    1.000
    C25      C        0.45750    0.60370    0.21910    1.000
    C26      C        0.47310    0.62050    0.11010    1.000
    C27      C        0.31720    0.59610    0.02970    1.000
    C28      C        0.34510    0.62240    0.93390    1.000
    C29      C        0.18180    0.59950    0.84280    1.000
    C30      C        0.52320    0.67350    0.91880    1.000
    C31      C        0.67430    0.68830    0.00190    1.000
    C32      C        0.88180    0.73360    0.99620    1.000
    N1       N        0.65010    0.83780    0.59580    1.000
    N2       N        0.34990    0.33780    0.90420    1.000
    N3       N        0.34990    0.16220    0.40420    1.000
    N4       N        0.65010    0.66220    0.09580    1.000
    O1       O        0.62250    0.90100    0.78110    1.000
    O2       O        0.28800    0.90650    0.74210    1.000
    O3       O        0.16550    0.83210    0.27080    1.000
    O4       O        0.07490    0.98660    0.34550    1.000
    O5       O        0.92280    0.74310    0.41150    1.000
    O6       O        0.00150    0.75660    0.57910    1.000
    O7       O        0.37750    0.40100    0.71890    1.000
    O8       O        0.71200    0.40650    0.75790    1.000
    O9       O        0.83450    0.33210    0.22920    1.000
    O10      O        0.92510    0.48660    0.15450    1.000
    O11      O        0.07720    0.24310    0.08850    1.000
    O12      O        0.99850    0.25660    0.92090    1.000
    O13      O        0.37750    0.09900    0.21890    1.000
    O14      O        0.71200    0.09350    0.25790    1.000
    O15      O        0.83450    0.16790    0.72920    1.000
    O16      O        0.92510    0.01340    0.65450    1.000
    O17      O        0.07720    0.25690    0.58850    1.000
    O18      O        0.99850    0.24340    0.42090    1.000
    O19      O        0.62250    0.59900    0.28110    1.000
    O20      O        0.28800    0.59350    0.24210    1.000
    O21      O        0.16550    0.66790    0.77080    1.000
    O22      O        0.07490    0.51340    0.84550    1.000
    O23      O        0.92280    0.75690    0.91150    1.000
    O24      O        0.00150    0.74340    0.07910    1.000
