# CIF file generated by openbabel 3.1.0, see https://openbabel.org
data_I
_chemical_name_common 'image0'
_cell_length_a 21.9692
_cell_length_b 21.9692
_cell_length_c 21.9692
_cell_angle_alpha 90
_cell_angle_beta 90
_cell_angle_gamma 90
_space_group_name_H-M_alt 'P 1'
_space_group_name_Hall 'P 1'
loop_
    _symmetry_equiv_pos_as_xyz
    x,y,z
loop_
    _atom_site_label
    _atom_site_type_symbol
    _atom_site_fract_x
    _atom_site_fract_y
    _atom_site_fract_z
    _atom_site_occupancy
    Mg1      Mg       0.67826    0.25965    0.19353    1.000
    C1       C        0.79110    0.29370    0.12540    1.000
    C2       C        0.79890    0.28660    0.01020    1.000
    H1       H        0.75700    0.28080    0.00820    1.000
    C3       C        0.82390    0.29520    0.06670    1.000
    C4       C        0.83120    0.28590    0.95540    1.000
    C5       C        0.80220    0.28000    0.89320    1.000
    C6       C        0.92170    0.30540    0.01540    1.000
    C7       C        0.88840    0.30320    0.06680    1.000
    H2       H        0.90830    0.30700    0.10400    1.000
    C8       C        0.89170    0.29940    0.95900    1.000
    H3       H        0.91380    0.30470    0.92330    1.000
    N1       N        0.98440    0.30870    0.02420    1.000
    O1       O        0.75010    0.25940    0.89344    1.000
    O2       O        0.73490    0.27687    0.12387    1.000
    O3       O        0.83590    0.29620    0.84970    1.000
    O4       O        0.82000    0.30961    0.17180    1.000
    Mg2      Mg       0.32174    0.74035    0.19353    1.000
    C9       C        0.20890    0.70630    0.12540    1.000
    C10      C        0.20110    0.71340    0.01020    1.000
    H4       H        0.24300    0.71920    0.00820    1.000
    C11      C        0.17610    0.70480    0.06670    1.000
    C12      C        0.16880    0.71410    0.95540    1.000
    C13      C        0.19780    0.72000    0.89320    1.000
    C14      C        0.07830    0.69460    0.01540    1.000
    C15      C        0.11160    0.69680    0.06680    1.000
    H5       H        0.09170    0.69300    0.10400    1.000
    C16      C        0.10830    0.70060    0.95900    1.000
    H6       H        0.08620    0.69530    0.92330    1.000
    N2       N        0.01560    0.69130    0.02420    1.000
    O5       O        0.24990    0.74060    0.89344    1.000
    O6       O        0.26510    0.72313    0.12387    1.000
    O7       O        0.16410    0.70380    0.84970    1.000
    O8       O        0.18000    0.69039    0.17180    1.000
    Mg3      Mg       0.32174    0.25965    0.80647    1.000
    C17      C        0.20890    0.29370    0.87460    1.000
    C18      C        0.20110    0.28660    0.98980    1.000
    H7       H        0.24300    0.28080    0.99180    1.000
    C19      C        0.17610    0.29520    0.93330    1.000
    C20      C        0.16880    0.28590    0.04460    1.000
    C21      C        0.19780    0.28000    0.10680    1.000
    C22      C        0.07830    0.30540    0.98460    1.000
    C23      C        0.11160    0.30320    0.93320    1.000
    H8       H        0.09170    0.30700    0.89600    1.000
    C24      C        0.10830    0.29940    0.04100    1.000
    H9       H        0.08620    0.30470    0.07670    1.000
    N3       N        0.01560    0.30870    0.97580    1.000
    O9       O        0.24990    0.25940    0.10656    1.000
    O10      O        0.26510    0.27687    0.87613    1.000
    O11      O        0.16410    0.29620    0.15030    1.000
    O12      O        0.18000    0.30961    0.82820    1.000
    Mg4      Mg       0.67826    0.74035    0.80647    1.000
    C25      C        0.79110    0.70630    0.87460    1.000
    C26      C        0.79890    0.71340    0.98980    1.000
    H10      H        0.75700    0.71920    0.99180    1.000
    C27      C        0.82390    0.70480    0.93330    1.000
    C28      C        0.83120    0.71410    0.04460    1.000
    C29      C        0.80220    0.72000    0.10680    1.000
    C30      C        0.92170    0.69460    0.98460    1.000
    C31      C        0.88840    0.69680    0.93320    1.000
    H11      H        0.90830    0.69300    0.89600    1.000
    C32      C        0.89170    0.70060    0.04100    1.000
    H12      H        0.91380    0.69530    0.07670    1.000
    N4       N        0.98440    0.69130    0.97580    1.000
    O13      O        0.75010    0.74060    0.10656    1.000
    O14      O        0.73490    0.72313    0.87613    1.000
    O15      O        0.83590    0.70380    0.15030    1.000
    O16      O        0.82000    0.69039    0.82820    1.000
    Mg5      Mg       0.19353    0.67826    0.25965    1.000
    C33      C        0.12540    0.79110    0.29370    1.000
    C34      C        0.01020    0.79890    0.28660    1.000
    H13      H        0.00820    0.75700    0.28080    1.000
    C35      C        0.06670    0.82390    0.29520    1.000
    C36      C        0.95540    0.83120    0.28590    1.000
    C37      C        0.89320    0.80220    0.28000    1.000
    C38      C        0.01540    0.92170    0.30540    1.000
    C39      C        0.06680    0.88840    0.30320    1.000
    H14      H        0.10400    0.90830    0.30700    1.000
    C40      C        0.95900    0.89170    0.29940    1.000
    H15      H        0.92330    0.91380    0.30470    1.000
    N5       N        0.02420    0.98440    0.30870    1.000
    O17      O        0.89344    0.75010    0.25940    1.000
    O18      O        0.12387    0.73490    0.27687    1.000
    O19      O        0.84970    0.83590    0.29620    1.000
    O20      O        0.17180    0.82000    0.30961    1.000
    Mg6      Mg       0.19353    0.32174    0.74035    1.000
    C41      C        0.12540    0.20890    0.70630    1.000
    C42      C        0.01020    0.20110    0.71340    1.000
    H16      H        0.00820    0.24300    0.71920    1.000
    C43      C        0.06670    0.17610    0.70480    1.000
    C44      C        0.95540    0.16880    0.71410    1.000
    C45      C        0.89320    0.19780    0.72000    1.000
    C46      C        0.01540    0.07830    0.69460    1.000
    C47      C        0.06680    0.11160    0.69680    1.000
    H17      H        0.10400    0.09170    0.69300    1.000
    C48      C        0.95900    0.10830    0.70060    1.000
    H18      H        0.92330    0.08620    0.69530    1.000
    N6       N        0.02420    0.01560    0.69130    1.000
    O21      O        0.89344    0.24990    0.74060    1.000
    O22      O        0.12387    0.26510    0.72313    1.000
    O23      O        0.84970    0.16410    0.70380    1.000
    O24      O        0.17180    0.18000    0.69039    1.000
    Mg7      Mg       0.80647    0.32174    0.25965    1.000
    C49      C        0.87460    0.20890    0.29370    1.000
    C50      C        0.98980    0.20110    0.28660    1.000
    H19      H        0.99180    0.24300    0.28080    1.000
    C51      C        0.93330    0.17610    0.29520    1.000
    C52      C        0.04460    0.16880    0.28590    1.000
    C53      C        0.10680    0.19780    0.28000    1.000
    C54      C        0.98460    0.07830    0.30540    1.000
    C55      C        0.93320    0.11160    0.30320    1.000
    H20      H        0.89600    0.09170    0.30700    1.000
    C56      C        0.04100    0.10830    0.29940    1.000
    H21      H        0.07670    0.08620    0.30470    1.000
    N7       N        0.97580    0.01560    0.30870    1.000
    O25      O        0.10656    0.24990    0.25940    1.000
    O26      O        0.87613    0.26510    0.27687    1.000
    O27      O        0.15030    0.16410    0.29620    1.000
    O28      O        0.82820    0.18000    0.30961    1.000
    Mg8      Mg       0.80647    0.67826    0.74035    1.000
    C57      C        0.87460    0.79110    0.70630    1.000
    C58      C        0.98980    0.79890    0.71340    1.000
    H22      H        0.99180    0.75700    0.71920    1.000
    C59      C        0.93330    0.82390    0.70480    1.000
    C60      C        0.04460    0.83120    0.71410    1.000
    C61      C        0.10680    0.80220    0.72000    1.000
    C62      C        0.98460    0.92170    0.69460    1.000
    C63      C        0.93320    0.88840    0.69680    1.000
    H23      H        0.89600    0.90830    0.69300    1.000
    C64      C        0.04100    0.89170    0.70060    1.000
    H24      H        0.07670    0.91380    0.69530    1.000
    N8       N        0.97580    0.98440    0.69130    1.000
    O29      O        0.10656    0.75010    0.74060    1.000
    O30      O        0.87613    0.73490    0.72313    1.000
    O31      O        0.15030    0.83590    0.70380    1.000
    O32      O        0.82820    0.82000    0.69039    1.000
    Mg9      Mg       0.25965    0.19353    0.67826    1.000
    C65      C        0.29370    0.12540    0.79110    1.000
    C66      C        0.28660    0.01020    0.79890    1.000
    H25      H        0.28080    0.00820    0.75700    1.000
    C67      C        0.29520    0.06670    0.82390    1.000
    C68      C        0.28590    0.95540    0.83120    1.000
    C69      C        0.28000    0.89320    0.80220    1.000
    C70      C        0.30540    0.01540    0.92170    1.000
    C71      C        0.30320    0.06680    0.88840    1.000
    H26      H        0.30700    0.10400    0.90830    1.000
    C72      C        0.29940    0.95900    0.89170    1.000
    H27      H        0.30470    0.92330    0.91380    1.000
    N9       N        0.30870    0.02420    0.98440    1.000
    O33      O        0.25940    0.89344    0.75010    1.000
    O34      O        0.27687    0.12387    0.73490    1.000
    O35      O        0.29620    0.84970    0.83590    1.000
    O36      O        0.30961    0.17180    0.82000    1.000
    Mg10     Mg       0.74035    0.19353    0.32174    1.000
    C73      C        0.70630    0.12540    0.20890    1.000
    C74      C        0.71340    0.01020    0.20110    1.000
    H28      H        0.71920    0.00820    0.24300    1.000
    C75      C        0.70480    0.06670    0.17610    1.000
    C76      C        0.71410    0.95540    0.16880    1.000
    C77      C        0.72000    0.89320    0.19780    1.000
    C78      C        0.69460    0.01540    0.07830    1.000
    C79      C        0.69680    0.06680    0.11160    1.000
    H29      H        0.69300    0.10400    0.09170    1.000
    C80      C        0.70060    0.95900    0.10830    1.000
    H30      H        0.69530    0.92330    0.08620    1.000
    N10      N        0.69130    0.02420    0.01560    1.000
    O37      O        0.74060    0.89344    0.24990    1.000
    O38      O        0.72313    0.12387    0.26510    1.000
    O39      O        0.70380    0.84970    0.16410    1.000
    O40      O        0.69039    0.17180    0.18000    1.000
    Mg11     Mg       0.25965    0.80647    0.32174    1.000
    C81      C        0.29370    0.87460    0.20890    1.000
    C82      C        0.28660    0.98980    0.20110    1.000
    H31      H        0.28080    0.99180    0.24300    1.000
    C83      C        0.29520    0.93330    0.17610    1.000
    C84      C        0.28590    0.04460    0.16880    1.000
    C85      C        0.28000    0.10680    0.19780    1.000
    C86      C        0.30540    0.98460    0.07830    1.000
    C87      C        0.30320    0.93320    0.11160    1.000
    H32      H        0.30700    0.89600    0.09170    1.000
    C88      C        0.29940    0.04100    0.10830    1.000
    H33      H        0.30470    0.07670    0.08620    1.000
    N11      N        0.30870    0.97580    0.01560    1.000
    O41      O        0.25940    0.10656    0.24990    1.000
    O42      O        0.27687    0.87613    0.26510    1.000
    O43      O        0.29620    0.15030    0.16410    1.000
    O44      O        0.30961    0.82820    0.18000    1.000
    Mg12     Mg       0.74035    0.80647    0.67826    1.000
    C89      C        0.70630    0.87460    0.79110    1.000
    C90      C        0.71340    0.98980    0.79890    1.000
    H34      H        0.71920    0.99180    0.75700    1.000
    C91      C        0.70480    0.93330    0.82390    1.000
    C92      C        0.71410    0.04460    0.83120    1.000
    C93      C        0.72000    0.10680    0.80220    1.000
    C94      C        0.69460    0.98460    0.92170    1.000
    C95      C        0.69680    0.93320    0.88840    1.000
    H35      H        0.69300    0.89600    0.90830    1.000
    C96      C        0.70060    0.04100    0.89170    1.000
    H36      H        0.69530    0.07670    0.91380    1.000
    N12      N        0.69130    0.97580    0.98440    1.000
    O45      O        0.74060    0.10656    0.75010    1.000
    O46      O        0.72313    0.87613    0.73490    1.000
    O47      O        0.70380    0.15030    0.83590    1.000
    O48      O        0.69039    0.82820    0.82000    1.000
    Mg13     Mg       0.75965    0.17826    0.69353    1.000
    C97      C        0.79370    0.29110    0.62540    1.000
    C98      C        0.78660    0.29890    0.51020    1.000
    H37      H        0.78080    0.25700    0.50820    1.000
    C99      C        0.79520    0.32390    0.56670    1.000
    C100     C        0.78590    0.33120    0.45540    1.000
    C101     C        0.78000    0.30220    0.39320    1.000
    C102     C        0.80540    0.42170    0.51540    1.000
    C103     C        0.80320    0.38840    0.56680    1.000
    H38      H        0.80700    0.40830    0.60400    1.000
    C104     C        0.79940    0.39170    0.45900    1.000
    H39      H        0.80470    0.41380    0.42330    1.000
    N13      N        0.80870    0.48440    0.52420    1.000
    O49      O        0.75940    0.25010    0.39344    1.000
    O50      O        0.77687    0.23490    0.62387    1.000
    O51      O        0.79620    0.33590    0.34970    1.000
    O52      O        0.80961    0.32000    0.67180    1.000
    Mg14     Mg       0.24035    0.82174    0.69353    1.000
    C105     C        0.20630    0.70890    0.62540    1.000
    C106     C        0.21340    0.70110    0.51020    1.000
    H40      H        0.21920    0.74300    0.50820    1.000
    C107     C        0.20480    0.67610    0.56670    1.000
    C108     C        0.21410    0.66880    0.45540    1.000
    C109     C        0.22000    0.69780    0.39320    1.000
    C110     C        0.19460    0.57830    0.51540    1.000
    C111     C        0.19680    0.61160    0.56680    1.000
    H41      H        0.19300    0.59170    0.60400    1.000
    C112     C        0.20060    0.60830    0.45900    1.000
    H42      H        0.19530    0.58620    0.42330    1.000
    N14      N        0.19130    0.51560    0.52420    1.000
    O53      O        0.24060    0.74990    0.39344    1.000
    O54      O        0.22313    0.76510    0.62387    1.000
    O55      O        0.20380    0.66410    0.34970    1.000
    O56      O        0.19039    0.68000    0.67180    1.000
    Mg15     Mg       0.75965    0.82174    0.30647    1.000
    C113     C        0.79370    0.70890    0.37460    1.000
    C114     C        0.78660    0.70110    0.48980    1.000
    H43      H        0.78080    0.74300    0.49180    1.000
    C115     C        0.79520    0.67610    0.43330    1.000
    C116     C        0.78590    0.66880    0.54460    1.000
    C117     C        0.78000    0.69780    0.60680    1.000
    C118     C        0.80540    0.57830    0.48460    1.000
    C119     C        0.80320    0.61160    0.43320    1.000
    H44      H        0.80700    0.59170    0.39600    1.000
    C120     C        0.79940    0.60830    0.54100    1.000
    H45      H        0.80470    0.58620    0.57670    1.000
    N15      N        0.80870    0.51560    0.47580    1.000
    O57      O        0.75940    0.74990    0.60656    1.000
    O58      O        0.77687    0.76510    0.37613    1.000
    O59      O        0.79620    0.66410    0.65030    1.000
    O60      O        0.80961    0.68000    0.32820    1.000
    Mg16     Mg       0.24035    0.17826    0.30647    1.000
    C121     C        0.20630    0.29110    0.37460    1.000
    C122     C        0.21340    0.29890    0.48980    1.000
    H46      H        0.21920    0.25700    0.49180    1.000
    C123     C        0.20480    0.32390    0.43330    1.000
    C124     C        0.21410    0.33120    0.54460    1.000
    C125     C        0.22000    0.30220    0.60680    1.000
    C126     C        0.19460    0.42170    0.48460    1.000
    C127     C        0.19680    0.38840    0.43320    1.000
    H47      H        0.19300    0.40830    0.39600    1.000
    C128     C        0.20060    0.39170    0.54100    1.000
    H48      H        0.19530    0.41380    0.57670    1.000
    N16      N        0.19130    0.48440    0.47580    1.000
    O61      O        0.24060    0.25010    0.60656    1.000
    O62      O        0.22313    0.23490    0.37613    1.000
    O63      O        0.20380    0.33590    0.65030    1.000
    O64      O        0.19039    0.32000    0.32820    1.000
    Mg17     Mg       0.17826    0.69353    0.75965    1.000
    C129     C        0.29110    0.62540    0.79370    1.000
    C130     C        0.29890    0.51020    0.78660    1.000
    H49      H        0.25700    0.50820    0.78080    1.000
    C131     C        0.32390    0.56670    0.79520    1.000
    C132     C        0.33120    0.45540    0.78590    1.000
    C133     C        0.30220    0.39320    0.78000    1.000
    C134     C        0.42170    0.51540    0.80540    1.000
    C135     C        0.38840    0.56680    0.80320    1.000
    H50      H        0.40830    0.60400    0.80700    1.000
    C136     C        0.39170    0.45900    0.79940    1.000
    H51      H        0.41380    0.42330    0.80470    1.000
    N17      N        0.48440    0.52420    0.80870    1.000
    O65      O        0.25010    0.39344    0.75940    1.000
    O66      O        0.23490    0.62387    0.77687    1.000
    O67      O        0.33590    0.34970    0.79620    1.000
    O68      O        0.32000    0.67180    0.80961    1.000
    Mg18     Mg       0.82174    0.69353    0.24035    1.000
    C137     C        0.70890    0.62540    0.20630    1.000
    C138     C        0.70110    0.51020    0.21340    1.000
    H52      H        0.74300    0.50820    0.21920    1.000
    C139     C        0.67610    0.56670    0.20480    1.000
    C140     C        0.66880    0.45540    0.21410    1.000
    C141     C        0.69780    0.39320    0.22000    1.000
    C142     C        0.57830    0.51540    0.19460    1.000
    C143     C        0.61160    0.56680    0.19680    1.000
    H53      H        0.59170    0.60400    0.19300    1.000
    C144     C        0.60830    0.45900    0.20060    1.000
    H54      H        0.58620    0.42330    0.19530    1.000
    N18      N        0.51560    0.52420    0.19130    1.000
    O69      O        0.74990    0.39344    0.24060    1.000
    O70      O        0.76510    0.62387    0.22313    1.000
    O71      O        0.66410    0.34970    0.20380    1.000
    O72      O        0.68000    0.67180    0.19039    1.000
    Mg19     Mg       0.82174    0.30647    0.75965    1.000
    C145     C        0.70890    0.37460    0.79370    1.000
    C146     C        0.70110    0.48980    0.78660    1.000
    H55      H        0.74300    0.49180    0.78080    1.000
    C147     C        0.67610    0.43330    0.79520    1.000
    C148     C        0.66880    0.54460    0.78590    1.000
    C149     C        0.69780    0.60680    0.78000    1.000
    C150     C        0.57830    0.48460    0.80540    1.000
    C151     C        0.61160    0.43320    0.80320    1.000
    H56      H        0.59170    0.39600    0.80700    1.000
    C152     C        0.60830    0.54100    0.79940    1.000
    H57      H        0.58620    0.57670    0.80470    1.000
    N19      N        0.51560    0.47580    0.80870    1.000
    O73      O        0.74990    0.60656    0.75940    1.000
    O74      O        0.76510    0.37613    0.77687    1.000
    O75      O        0.66410    0.65030    0.79620    1.000
    O76      O        0.68000    0.32820    0.80961    1.000
    Mg20     Mg       0.17826    0.30647    0.24035    1.000
    C153     C        0.29110    0.37460    0.20630    1.000
    C154     C        0.29890    0.48980    0.21340    1.000
    H58      H        0.25700    0.49180    0.21920    1.000
    C155     C        0.32390    0.43330    0.20480    1.000
    C156     C        0.33120    0.54460    0.21410    1.000
    C157     C        0.30220    0.60680    0.22000    1.000
    C158     C        0.42170    0.48460    0.19460    1.000
    C159     C        0.38840    0.43320    0.19680    1.000
    H59      H        0.40830    0.39600    0.19300    1.000
    C160     C        0.39170    0.54100    0.20060    1.000
    H60      H        0.41380    0.57670    0.19530    1.000
    N20      N        0.48440    0.47580    0.19130    1.000
    O77      O        0.25010    0.60656    0.24060    1.000
    O78      O        0.23490    0.37613    0.22313    1.000
    O79      O        0.33590    0.65030    0.20380    1.000
    O80      O        0.32000    0.32820    0.19039    1.000
    Mg21     Mg       0.69353    0.75965    0.17826    1.000
    C161     C        0.62540    0.79370    0.29110    1.000
    C162     C        0.51020    0.78660    0.29890    1.000
    H61      H        0.50820    0.78080    0.25700    1.000
    C163     C        0.56670    0.79520    0.32390    1.000
    C164     C        0.45540    0.78590    0.33120    1.000
    C165     C        0.39320    0.78000    0.30220    1.000
    C166     C        0.51540    0.80540    0.42170    1.000
    C167     C        0.56680    0.80320    0.38840    1.000
    H62      H        0.60400    0.80700    0.40830    1.000
    C168     C        0.45900    0.79940    0.39170    1.000
    H63      H        0.42330    0.80470    0.41380    1.000
    N21      N        0.52420    0.80870    0.48440    1.000
    O81      O        0.39344    0.75940    0.25010    1.000
    O82      O        0.62387    0.77687    0.23490    1.000
    O83      O        0.34970    0.79620    0.33590    1.000
    O84      O        0.67180    0.80961    0.32000    1.000
    Mg22     Mg       0.69353    0.24035    0.82174    1.000
    C169     C        0.62540    0.20630    0.70890    1.000
    C170     C        0.51020    0.21340    0.70110    1.000
    H64      H        0.50820    0.21920    0.74300    1.000
    C171     C        0.56670    0.20480    0.67610    1.000
    C172     C        0.45540    0.21410    0.66880    1.000
    C173     C        0.39320    0.22000    0.69780    1.000
    C174     C        0.51540    0.19460    0.57830    1.000
    C175     C        0.56680    0.19680    0.61160    1.000
    H65      H        0.60400    0.19300    0.59170    1.000
    C176     C        0.45900    0.20060    0.60830    1.000
    H66      H        0.42330    0.19530    0.58620    1.000
    N22      N        0.52420    0.19130    0.51560    1.000
    O85      O        0.39344    0.24060    0.74990    1.000
    O86      O        0.62387    0.22313    0.76510    1.000
    O87      O        0.34970    0.20380    0.66410    1.000
    O88      O        0.67180    0.19039    0.68000    1.000
    Mg23     Mg       0.30647    0.75965    0.82174    1.000
    C177     C        0.37460    0.79370    0.70890    1.000
    C178     C        0.48980    0.78660    0.70110    1.000
    H67      H        0.49180    0.78080    0.74300    1.000
    C179     C        0.43330    0.79520    0.67610    1.000
    C180     C        0.54460    0.78590    0.66880    1.000
    C181     C        0.60680    0.78000    0.69780    1.000
    C182     C        0.48460    0.80540    0.57830    1.000
    C183     C        0.43320    0.80320    0.61160    1.000
    H68      H        0.39600    0.80700    0.59170    1.000
    C184     C        0.54100    0.79940    0.60830    1.000
    H69      H        0.57670    0.80470    0.58620    1.000
    N23      N        0.47580    0.80870    0.51560    1.000
    O89      O        0.60656    0.75940    0.74990    1.000
    O90      O        0.37613    0.77687    0.76510    1.000
    O91      O        0.65030    0.79620    0.66410    1.000
    O92      O        0.32820    0.80961    0.68000    1.000
    Mg24     Mg       0.30647    0.24035    0.17826    1.000
    C185     C        0.37460    0.20630    0.29110    1.000
    C186     C        0.48980    0.21340    0.29890    1.000
    H70      H        0.49180    0.21920    0.25700    1.000
    C187     C        0.43330    0.20480    0.32390    1.000
    C188     C        0.54460    0.21410    0.33120    1.000
    C189     C        0.60680    0.22000    0.30220    1.000
    C190     C        0.48460    0.19460    0.42170    1.000
    C191     C        0.43320    0.19680    0.38840    1.000
    H71      H        0.39600    0.19300    0.40830    1.000
    C192     C        0.54100    0.20060    0.39170    1.000
    H72      H        0.57670    0.19530    0.41380    1.000
    N24      N        0.47580    0.19130    0.48440    1.000
    O93      O        0.60656    0.24060    0.25010    1.000
    O94      O        0.37613    0.22313    0.23490    1.000
    O95      O        0.65030    0.20380    0.33590    1.000
    O96      O        0.32820    0.19039    0.32000    1.000
    O97      O        0.74040    0.25960    0.25960    1.000
    O98      O        0.25960    0.74040    0.25960    1.000
    O99      O        0.25960    0.25960    0.74040    1.000
    O100     O        0.74040    0.74040    0.74040    1.000
    O101     O        0.75960    0.24040    0.75960    1.000
    O102     O        0.24040    0.75960    0.75960    1.000
    O103     O        0.75960    0.75960    0.24040    1.000
    O104     O        0.24040    0.24040    0.24040    1.000
