# CIF file generated by openbabel 3.1.0, see https://openbabel.org
data_I
_chemical_name_common 'image0'
_cell_length_a 20.501
_cell_length_b 20.501
_cell_length_c 20.501
_cell_angle_alpha 90
_cell_angle_beta 90
_cell_angle_gamma 90
_space_group_name_H-M_alt 'P 1'
_space_group_name_Hall 'P 1'
loop_
    _symmetry_equiv_pos_as_xyz
    x,y,z
loop_
    _atom_site_label
    _atom_site_type_symbol
    _atom_site_fract_x
    _atom_site_fract_y
    _atom_site_fract_z
    _atom_site_occupancy
    O1       O        0.13340    0.81010    0.24250    1.000
    O2       O        0.05870    0.88150    0.21170    1.000
    N1       N        0.99630    0.65070    0.01300    1.000
    H1       H        0.95900    0.66320    0.99590    1.000
    N2       N        0.98880    0.57450    0.93200    1.000
    C1       C        0.08650    0.82790    0.20730    1.000
    C2       C        0.06380    0.78060    0.15660    1.000
    C3       C        0.01390    0.79590    0.11450    1.000
    H2       H        0.99410    0.83770    0.11690    1.000
    C4       C        0.99210    0.75160    0.06890    1.000
    H3       H        0.95690    0.76320    0.04110    1.000
    C5       C        0.02040    0.69070    0.06280    1.000
    C6       C        0.07160    0.67510    0.10480    1.000
    H4       H        0.09190    0.63350    0.10190    1.000
    C7       C        0.09250    0.71840    0.14950    1.000
    H5       H        0.12770    0.70670    0.17730    1.000
    C8       C        0.02230    0.59460    0.98680    1.000
    O3       O        0.36660    0.18990    0.74250    1.000
    O4       O        0.44130    0.11850    0.71170    1.000
    N3       N        0.50370    0.34930    0.51300    1.000
    H6       H        0.54100    0.33680    0.49590    1.000
    N4       N        0.51120    0.42550    0.43200    1.000
    C9       C        0.41350    0.17210    0.70730    1.000
    C10      C        0.43620    0.21940    0.65660    1.000
    C11      C        0.48610    0.20410    0.61450    1.000
    H7       H        0.50590    0.16230    0.61690    1.000
    C12      C        0.50790    0.24840    0.56890    1.000
    H8       H        0.54310    0.23680    0.54110    1.000
    C13      C        0.47960    0.30930    0.56280    1.000
    C14      C        0.42840    0.32490    0.60480    1.000
    H9       H        0.40810    0.36650    0.60190    1.000
    C15      C        0.40750    0.28160    0.64950    1.000
    H10      H        0.37230    0.29330    0.67730    1.000
    C16      C        0.47770    0.40540    0.48680    1.000
    O5       O        0.86660    0.31010    0.25750    1.000
    O6       O        0.94130    0.38150    0.28830    1.000
    N5       N        0.00370    0.15070    0.48700    1.000
    H11      H        0.04100    0.16320    0.50410    1.000
    N6       N        0.01120    0.07450    0.56800    1.000
    C17      C        0.91350    0.32790    0.29270    1.000
    C18      C        0.93620    0.28060    0.34340    1.000
    C19      C        0.98610    0.29590    0.38550    1.000
    H12      H        0.00590    0.33770    0.38310    1.000
    C20      C        0.00790    0.25160    0.43110    1.000
    H13      H        0.04310    0.26320    0.45890    1.000
    C21      C        0.97960    0.19070    0.43720    1.000
    C22      C        0.92840    0.17510    0.39520    1.000
    H14      H        0.90810    0.13350    0.39810    1.000
    C23      C        0.90750    0.21840    0.35050    1.000
    H15      H        0.87230    0.20670    0.32270    1.000
    C24      C        0.97770    0.09460    0.51320    1.000
    O7       O        0.63340    0.68990    0.75750    1.000
    O8       O        0.55870    0.61850    0.78830    1.000
    N7       N        0.49630    0.84930    0.98700    1.000
    H16      H        0.45900    0.83680    0.00410    1.000
    N8       N        0.48880    0.92550    0.06800    1.000
    C25      C        0.58650    0.67210    0.79270    1.000
    C26      C        0.56380    0.71940    0.84340    1.000
    C27      C        0.51390    0.70410    0.88550    1.000
    H17      H        0.49410    0.66230    0.88310    1.000
    C28      C        0.49210    0.74840    0.93110    1.000
    H18      H        0.45690    0.73680    0.95890    1.000
    C29      C        0.52040    0.80930    0.93720    1.000
    C30      C        0.57160    0.82490    0.89520    1.000
    H19      H        0.59190    0.86650    0.89810    1.000
    C31      C        0.59250    0.78160    0.85050    1.000
    H20      H        0.62770    0.79330    0.82270    1.000
    C32      C        0.52230    0.90540    0.01320    1.000
    O9       O        0.24250    0.13340    0.81010    1.000
    O10      O        0.21170    0.05870    0.88150    1.000
    N9       N        0.01300    0.99630    0.65070    1.000
    H21      H        0.99590    0.95900    0.66320    1.000
    N10      N        0.93200    0.98880    0.57450    1.000
    C33      C        0.20730    0.08650    0.82790    1.000
    C34      C        0.15660    0.06380    0.78060    1.000
    C35      C        0.11450    0.01390    0.79590    1.000
    H22      H        0.11690    0.99410    0.83770    1.000
    C36      C        0.06890    0.99210    0.75160    1.000
    H23      H        0.04110    0.95690    0.76320    1.000
    C37      C        0.06280    0.02040    0.69070    1.000
    C38      C        0.10480    0.07160    0.67510    1.000
    H24      H        0.10190    0.09190    0.63350    1.000
    C39      C        0.14950    0.09250    0.71840    1.000
    H25      H        0.17730    0.12770    0.70670    1.000
    C40      C        0.98680    0.02230    0.59460    1.000
    O11      O        0.74250    0.36660    0.18990    1.000
    O12      O        0.71170    0.44130    0.11850    1.000
    N11      N        0.51300    0.50370    0.34930    1.000
    H26      H        0.49590    0.54100    0.33680    1.000
    N12      N        0.43200    0.51120    0.42550    1.000
    C41      C        0.70730    0.41350    0.17210    1.000
    C42      C        0.65660    0.43620    0.21940    1.000
    C43      C        0.61450    0.48610    0.20410    1.000
    H27      H        0.61690    0.50590    0.16230    1.000
    C44      C        0.56890    0.50790    0.24840    1.000
    H28      H        0.54110    0.54310    0.23680    1.000
    C45      C        0.56280    0.47960    0.30930    1.000
    C46      C        0.60480    0.42840    0.32490    1.000
    H29      H        0.60190    0.40810    0.36650    1.000
    C47      C        0.64950    0.40750    0.28160    1.000
    H30      H        0.67730    0.37230    0.29330    1.000
    C48      C        0.48680    0.47770    0.40540    1.000
    O13      O        0.25750    0.86660    0.31010    1.000
    O14      O        0.28830    0.94130    0.38150    1.000
    N13      N        0.48700    0.00370    0.15070    1.000
    H31      H        0.50410    0.04100    0.16320    1.000
    N14      N        0.56800    0.01120    0.07450    1.000
    C49      C        0.29270    0.91350    0.32790    1.000
    C50      C        0.34340    0.93620    0.28060    1.000
    C51      C        0.38550    0.98610    0.29590    1.000
    H32      H        0.38310    0.00590    0.33770    1.000
    C52      C        0.43110    0.00790    0.25160    1.000
    H33      H        0.45890    0.04310    0.26320    1.000
    C53      C        0.43720    0.97960    0.19070    1.000
    C54      C        0.39520    0.92840    0.17510    1.000
    H34      H        0.39810    0.90810    0.13350    1.000
    C55      C        0.35050    0.90750    0.21840    1.000
    H35      H        0.32270    0.87230    0.20670    1.000
    C56      C        0.51320    0.97770    0.09460    1.000
    O15      O        0.75750    0.63340    0.68990    1.000
    O16      O        0.78830    0.55870    0.61850    1.000
    N15      N        0.98700    0.49630    0.84930    1.000
    H36      H        0.00410    0.45900    0.83680    1.000
    N16      N        0.06800    0.48880    0.92550    1.000
    C57      C        0.79270    0.58650    0.67210    1.000
    C58      C        0.84340    0.56380    0.71940    1.000
    C59      C        0.88550    0.51390    0.70410    1.000
    H37      H        0.88310    0.49410    0.66230    1.000
    C60      C        0.93110    0.49210    0.74840    1.000
    H38      H        0.95890    0.45690    0.73680    1.000
    C61      C        0.93720    0.52040    0.80930    1.000
    C62      C        0.89520    0.57160    0.82490    1.000
    H39      H        0.89810    0.59190    0.86650    1.000
    C63      C        0.85050    0.59250    0.78160    1.000
    H40      H        0.82270    0.62770    0.79330    1.000
    C64      C        0.01320    0.52230    0.90540    1.000
    O17      O        0.81010    0.24250    0.13340    1.000
    O18      O        0.88150    0.21170    0.05870    1.000
    N17      N        0.65070    0.01300    0.99630    1.000
    H41      H        0.66320    0.99590    0.95900    1.000
    N18      N        0.57450    0.93200    0.98880    1.000
    C65      C        0.82790    0.20730    0.08650    1.000
    C66      C        0.78060    0.15660    0.06380    1.000
    C67      C        0.79590    0.11450    0.01390    1.000
    H42      H        0.83770    0.11690    0.99410    1.000
    C68      C        0.75160    0.06890    0.99210    1.000
    H43      H        0.76320    0.04110    0.95690    1.000
    C69      C        0.69070    0.06280    0.02040    1.000
    C70      C        0.67510    0.10480    0.07160    1.000
    H44      H        0.63350    0.10190    0.09190    1.000
    C71      C        0.71840    0.14950    0.09250    1.000
    H45      H        0.70670    0.17730    0.12770    1.000
    C72      C        0.59460    0.98680    0.02230    1.000
    O19      O        0.18990    0.74250    0.36660    1.000
    O20      O        0.11850    0.71170    0.44130    1.000
    N19      N        0.34930    0.51300    0.50370    1.000
    H46      H        0.33680    0.49590    0.54100    1.000
    N20      N        0.42550    0.43200    0.51120    1.000
    C73      C        0.17210    0.70730    0.41350    1.000
    C74      C        0.21940    0.65660    0.43620    1.000
    C75      C        0.20410    0.61450    0.48610    1.000
    H47      H        0.16230    0.61690    0.50590    1.000
    C76      C        0.24840    0.56890    0.50790    1.000
    H48      H        0.23680    0.54110    0.54310    1.000
    C77      C        0.30930    0.56280    0.47960    1.000
    C78      C        0.32490    0.60480    0.42840    1.000
    H49      H        0.36650    0.60190    0.40810    1.000
    C79      C        0.28160    0.64950    0.40750    1.000
    H50      H        0.29330    0.67730    0.37230    1.000
    C80      C        0.40540    0.48680    0.47770    1.000
    O21      O        0.31010    0.25750    0.86660    1.000
    O22      O        0.38150    0.28830    0.94130    1.000
    N21      N        0.15070    0.48700    0.00370    1.000
    H51      H        0.16320    0.50410    0.04100    1.000
    N22      N        0.07450    0.56800    0.01120    1.000
    C81      C        0.32790    0.29270    0.91350    1.000
    C82      C        0.28060    0.34340    0.93620    1.000
    C83      C        0.29590    0.38550    0.98610    1.000
    H52      H        0.33770    0.38310    0.00590    1.000
    C84      C        0.25160    0.43110    0.00790    1.000
    H53      H        0.26320    0.45890    0.04310    1.000
    C85      C        0.19070    0.43720    0.97960    1.000
    C86      C        0.17510    0.39520    0.92840    1.000
    H54      H        0.13350    0.39810    0.90810    1.000
    C87      C        0.21840    0.35050    0.90750    1.000
    H55      H        0.20670    0.32270    0.87230    1.000
    C88      C        0.09460    0.51320    0.97770    1.000
    O23      O        0.68990    0.75750    0.63340    1.000
    O24      O        0.61850    0.78830    0.55870    1.000
    N23      N        0.84930    0.98700    0.49630    1.000
    H56      H        0.83680    0.00410    0.45900    1.000
    N24      N        0.92550    0.06800    0.48880    1.000
    C89      C        0.67210    0.79270    0.58650    1.000
    C90      C        0.71940    0.84340    0.56380    1.000
    C91      C        0.70410    0.88550    0.51390    1.000
    H57      H        0.66230    0.88310    0.49410    1.000
    C92      C        0.74840    0.93110    0.49210    1.000
    H58      H        0.73680    0.95890    0.45690    1.000
    C93      C        0.80930    0.93720    0.52040    1.000
    C94      C        0.82490    0.89520    0.57160    1.000
    H59      H        0.86650    0.89810    0.59190    1.000
    C95      C        0.78160    0.85050    0.59250    1.000
    H60      H        0.79330    0.82270    0.62770    1.000
    C96      C        0.90540    0.01320    0.52230    1.000
    Eu1      Eu       0.15433    0.84567    0.34567    1.000
    Eu2      Eu       0.34567    0.15433    0.84567    1.000
    Eu3      Eu       0.84567    0.34567    0.15433    1.000
    Eu4      Eu       0.65433    0.65433    0.65433    1.000
    O25      O        0.23530    0.61780    0.18040    1.000
    O26      O        0.20860    0.53420    0.11600    1.000
    N25      N        0.00810    0.49010    0.35130    1.000
    H61      H        0.98980    0.45270    0.34070    1.000
    N26      N        0.01170    0.57160    0.42940    1.000
    C97      C        0.20170    0.56650    0.16660    1.000
    C98      C        0.15250    0.54750    0.21630    1.000
    C99      C        0.14810    0.57970    0.27480    1.000
    H62      H        0.17750    0.61430    0.28420    1.000
    C100     C        0.10050    0.56210    0.32110    1.000
    H63      H        0.09730    0.58520    0.36120    1.000
    C101     C        0.05850    0.51100    0.30790    1.000
    C102     C        0.06440    0.47890    0.24870    1.000
    H64      H        0.03560    0.44380    0.23910    1.000
    C103     C        0.10950    0.49610    0.20450    1.000
    H65      H        0.11220    0.47280    0.16450    1.000
    C104     C        0.98400    0.51770    0.40480    1.000
    O27      O        0.26470    0.38220    0.68040    1.000
    O28      O        0.29140    0.46580    0.61600    1.000
    N27      N        0.49190    0.50990    0.85130    1.000
    H66      H        0.51020    0.54730    0.84070    1.000
    N28      N        0.48830    0.42840    0.92940    1.000
    C105     C        0.29830    0.43350    0.66660    1.000
    C106     C        0.34750    0.45250    0.71630    1.000
    C107     C        0.35190    0.42030    0.77480    1.000
    H67      H        0.32250    0.38570    0.78420    1.000
    C108     C        0.39950    0.43790    0.82110    1.000
    H68      H        0.40270    0.41480    0.86120    1.000
    C109     C        0.44150    0.48900    0.80790    1.000
    C110     C        0.43560    0.52110    0.74870    1.000
    H69      H        0.46440    0.55620    0.73910    1.000
    C111     C        0.39050    0.50390    0.70450    1.000
    H70      H        0.38780    0.52720    0.66450    1.000
    C112     C        0.51600    0.48230    0.90480    1.000
    O29      O        0.76470    0.11780    0.31960    1.000
    O30      O        0.79140    0.03420    0.38400    1.000
    N29      N        0.99190    0.99010    0.14870    1.000
    H71      H        0.01020    0.95270    0.15930    1.000
    N30      N        0.98830    0.07160    0.07060    1.000
    C113     C        0.79830    0.06650    0.33340    1.000
    C114     C        0.84750    0.04750    0.28370    1.000
    C115     C        0.85190    0.07970    0.22520    1.000
    H72      H        0.82250    0.11430    0.21580    1.000
    C116     C        0.89950    0.06210    0.17890    1.000
    H73      H        0.90270    0.08520    0.13880    1.000
    C117     C        0.94150    0.01100    0.19210    1.000
    C118     C        0.93560    0.97890    0.25130    1.000
    H74      H        0.96440    0.94380    0.26090    1.000
    C119     C        0.89050    0.99610    0.29550    1.000
    H75      H        0.88780    0.97280    0.33550    1.000
    C120     C        0.01600    0.01770    0.09520    1.000
    O31      O        0.73530    0.88220    0.81960    1.000
    O32      O        0.70860    0.96580    0.88400    1.000
    N31      N        0.50810    0.00990    0.64870    1.000
    H76      H        0.48980    0.04730    0.65930    1.000
    N32      N        0.51170    0.92840    0.57060    1.000
    C121     C        0.70170    0.93350    0.83340    1.000
    C122     C        0.65250    0.95250    0.78370    1.000
    C123     C        0.64810    0.92030    0.72520    1.000
    H77      H        0.67750    0.88570    0.71580    1.000
    C124     C        0.60050    0.93790    0.67890    1.000
    H78      H        0.59730    0.91480    0.63880    1.000
    C125     C        0.55850    0.98900    0.69210    1.000
    C126     C        0.56440    0.02110    0.75130    1.000
    H79      H        0.53560    0.05620    0.76090    1.000
    C127     C        0.60950    0.00390    0.79550    1.000
    H80      H        0.61220    0.02720    0.83550    1.000
    C128     C        0.48400    0.98230    0.59520    1.000
    O33      O        0.18040    0.23530    0.61780    1.000
    O34      O        0.11600    0.20860    0.53420    1.000
    N33      N        0.35130    0.00810    0.49010    1.000
    H81      H        0.34070    0.98980    0.45270    1.000
    N34      N        0.42940    0.01170    0.57160    1.000
    C129     C        0.16660    0.20170    0.56650    1.000
    C130     C        0.21630    0.15250    0.54750    1.000
    C131     C        0.27480    0.14810    0.57970    1.000
    H82      H        0.28420    0.17750    0.61430    1.000
    C132     C        0.32110    0.10050    0.56210    1.000
    H83      H        0.36120    0.09730    0.58520    1.000
    C133     C        0.30790    0.05850    0.51100    1.000
    C134     C        0.24870    0.06440    0.47890    1.000
    H84      H        0.23910    0.03560    0.44380    1.000
    C135     C        0.20450    0.10950    0.49610    1.000
    H85      H        0.16450    0.11220    0.47280    1.000
    C136     C        0.40480    0.98400    0.51770    1.000
    O35      O        0.68040    0.26470    0.38220    1.000
    O36      O        0.61600    0.29140    0.46580    1.000
    N35      N        0.85130    0.49190    0.50990    1.000
    H86      H        0.84070    0.51020    0.54730    1.000
    N36      N        0.92940    0.48830    0.42840    1.000
    C137     C        0.66660    0.29830    0.43350    1.000
    C138     C        0.71630    0.34750    0.45250    1.000
    C139     C        0.77480    0.35190    0.42030    1.000
    H87      H        0.78420    0.32250    0.38570    1.000
    C140     C        0.82110    0.39950    0.43790    1.000
    H88      H        0.86120    0.40270    0.41480    1.000
    C141     C        0.80790    0.44150    0.48900    1.000
    C142     C        0.74870    0.43560    0.52110    1.000
    H89      H        0.73910    0.46440    0.55620    1.000
    C143     C        0.70450    0.39050    0.50390    1.000
    H90      H        0.66450    0.38780    0.52720    1.000
    C144     C        0.90480    0.51600    0.48230    1.000
    O37      O        0.31960    0.76470    0.11780    1.000
    O38      O        0.38400    0.79140    0.03420    1.000
    N37      N        0.14870    0.99190    0.99010    1.000
    H91      H        0.15930    0.01020    0.95270    1.000
    N38      N        0.07060    0.98830    0.07160    1.000
    C145     C        0.33340    0.79830    0.06650    1.000
    C146     C        0.28370    0.84750    0.04750    1.000
    C147     C        0.22520    0.85190    0.07970    1.000
    H92      H        0.21580    0.82250    0.11430    1.000
    C148     C        0.17890    0.89950    0.06210    1.000
    H93      H        0.13880    0.90270    0.08520    1.000
    C149     C        0.19210    0.94150    0.01100    1.000
    C150     C        0.25130    0.93560    0.97890    1.000
    H94      H        0.26090    0.96440    0.94380    1.000
    C151     C        0.29550    0.89050    0.99610    1.000
    H95      H        0.33550    0.88780    0.97280    1.000
    C152     C        0.09520    0.01600    0.01770    1.000
    O39      O        0.81960    0.73530    0.88220    1.000
    O40      O        0.88400    0.70860    0.96580    1.000
    N39      N        0.64870    0.50810    0.00990    1.000
    H96      H        0.65930    0.48980    0.04730    1.000
    N40      N        0.57060    0.51170    0.92840    1.000
    C153     C        0.83340    0.70170    0.93350    1.000
    C154     C        0.78370    0.65250    0.95250    1.000
    C155     C        0.72520    0.64810    0.92030    1.000
    H97      H        0.71580    0.67750    0.88570    1.000
    C156     C        0.67890    0.60050    0.93790    1.000
    H98      H        0.63880    0.59730    0.91480    1.000
    C157     C        0.69210    0.55850    0.98900    1.000
    C158     C        0.75130    0.56440    0.02110    1.000
    H99      H        0.76090    0.53560    0.05620    1.000
    C159     C        0.79550    0.60950    0.00390    1.000
    H100     H        0.83550    0.61220    0.02720    1.000
    C160     C        0.59520    0.48400    0.98230    1.000
    O41      O        0.61780    0.18040    0.23530    1.000
    O42      O        0.53420    0.11600    0.20860    1.000
    N41      N        0.49010    0.35130    0.00810    1.000
    H101     H        0.45270    0.34070    0.98980    1.000
    N42      N        0.57160    0.42940    0.01170    1.000
    C161     C        0.56650    0.16660    0.20170    1.000
    C162     C        0.54750    0.21630    0.15250    1.000
    C163     C        0.57970    0.27480    0.14810    1.000
    H102     H        0.61430    0.28420    0.17750    1.000
    C164     C        0.56210    0.32110    0.10050    1.000
    H103     H        0.58520    0.36120    0.09730    1.000
    C165     C        0.51100    0.30790    0.05850    1.000
    C166     C        0.47890    0.24870    0.06440    1.000
    H104     H        0.44380    0.23910    0.03560    1.000
    C167     C        0.49610    0.20450    0.10950    1.000
    H105     H        0.47280    0.16450    0.11220    1.000
    C168     C        0.51770    0.40480    0.98400    1.000
    O43      O        0.38220    0.68040    0.26470    1.000
    O44      O        0.46580    0.61600    0.29140    1.000
    N43      N        0.50990    0.85130    0.49190    1.000
    H106     H        0.54730    0.84070    0.51020    1.000
    N44      N        0.42840    0.92940    0.48830    1.000
    C169     C        0.43350    0.66660    0.29830    1.000
    C170     C        0.45250    0.71630    0.34750    1.000
    C171     C        0.42030    0.77480    0.35190    1.000
    H107     H        0.38570    0.78420    0.32250    1.000
    C172     C        0.43790    0.82110    0.39950    1.000
    H108     H        0.41480    0.86120    0.40270    1.000
    C173     C        0.48900    0.80790    0.44150    1.000
    C174     C        0.52110    0.74870    0.43560    1.000
    H109     H        0.55620    0.73910    0.46440    1.000
    C175     C        0.50390    0.70450    0.39050    1.000
    H110     H        0.52720    0.66450    0.38780    1.000
    C176     C        0.48230    0.90480    0.51600    1.000
    O45      O        0.11780    0.31960    0.76470    1.000
    O46      O        0.03420    0.38400    0.79140    1.000
    N45      N        0.99010    0.14870    0.99190    1.000
    H111     H        0.95270    0.15930    0.01020    1.000
    N46      N        0.07160    0.07060    0.98830    1.000
    C177     C        0.06650    0.33340    0.79830    1.000
    C178     C        0.04750    0.28370    0.84750    1.000
    C179     C        0.07970    0.22520    0.85190    1.000
    H112     H        0.11430    0.21580    0.82250    1.000
    C180     C        0.06210    0.17890    0.89950    1.000
    H113     H        0.08520    0.13880    0.90270    1.000
    C181     C        0.01100    0.19210    0.94150    1.000
    C182     C        0.97890    0.25130    0.93560    1.000
    H114     H        0.94380    0.26090    0.96440    1.000
    C183     C        0.99610    0.29550    0.89050    1.000
    H115     H        0.97280    0.33550    0.88780    1.000
    C184     C        0.01770    0.09520    0.01600    1.000
    O47      O        0.88220    0.81960    0.73530    1.000
    O48      O        0.96580    0.88400    0.70860    1.000
    N47      N        0.00990    0.64870    0.50810    1.000
    H116     H        0.04730    0.65930    0.48980    1.000
    N48      N        0.92840    0.57060    0.51170    1.000
    C185     C        0.93350    0.83340    0.70170    1.000
    C186     C        0.95250    0.78370    0.65250    1.000
    C187     C        0.92030    0.72520    0.64810    1.000
    H117     H        0.88570    0.71580    0.67750    1.000
    C188     C        0.93790    0.67890    0.60050    1.000
    H118     H        0.91480    0.63880    0.59730    1.000
    C189     C        0.98900    0.69210    0.55850    1.000
    C190     C        0.02110    0.75130    0.56440    1.000
    H119     H        0.05620    0.76090    0.53560    1.000
    C191     C        0.00390    0.79550    0.60950    1.000
    H120     H        0.02720    0.83550    0.61220    1.000
    C192     C        0.98230    0.59520    0.48400    1.000
    Eu5      Eu       0.33390    0.66610    0.16610    1.000
    Eu6      Eu       0.16610    0.33390    0.66610    1.000
    Eu7      Eu       0.66610    0.16610    0.33390    1.000
    Eu8      Eu       0.83390    0.83390    0.83390    1.000
