# CIF file generated by openbabel 3.1.0, see https://openbabel.org
data_I
_chemical_name_common 'image0'
_cell_length_a 21.23
_cell_length_b 32.113
_cell_length_c 14.917
_cell_angle_alpha 90
_cell_angle_beta 132.847
_cell_angle_gamma 90
_space_group_name_H-M_alt 'P 1'
_space_group_name_Hall 'P 1'
loop_
    _symmetry_equiv_pos_as_xyz
    x,y,z
loop_
    _atom_site_label
    _atom_site_type_symbol
    _atom_site_fract_x
    _atom_site_fract_y
    _atom_site_fract_z
    _atom_site_occupancy
    Cd1      Cd       0.73141    0.46809    0.50656    1.000
    Cd2      Cd       0.72967    0.90828    0.85213    1.000
    Cd3      Cd       0.23267    0.96273    0.22703    1.000
    N1       N        0.58590    0.47110    0.36970    1.000
    N2       N        0.45430    0.45030    0.22260    1.000
    H1       H        0.41090    0.43390    0.17660    1.000
    N3       N        0.13280    0.45260    0.82410    1.000
    N4       N        0.00290    0.47570    0.71830    1.000
    H2       H        0.94780    0.47590    0.66940    1.000
    N5       N        0.37210    0.96120    0.35850    1.000
    N6       N        0.50680    0.93940    0.48990    1.000
    H3       H        0.55040    0.92300    0.53420    1.000
    N7       N        0.82780    0.94710    0.87430    1.000
    N8       N        0.95950    0.96580    0.97250    1.000
    H4       H        0.01470    0.96530    0.02370    1.000
    O1       O        0.82670    0.51520    0.51710    1.000
    O2       O        0.75200    0.53590    0.55940    1.000
    O3       O        0.70860    0.85580    0.94040    1.000
    O4       O        0.82680    0.89277    0.06110    1.000
    O5       O        0.21240    0.88180    0.18490    1.000
    O6       O        0.11580    0.93098    0.06890    1.000
    O7       O        0.15930    0.01859    0.21990    1.000
    O8       O        0.22930    0.03228    0.16440    1.000
    O9       O        0.26180    0.35270    0.77630    1.000
    O10      O        0.13950    0.38554    0.65250    1.000
    O11      O        0.79600    0.36830    0.49850    1.000
    O12      O        0.83820    0.42221    0.62140    1.000
    O13      O        0.70620    0.42934    0.34840    1.000
    H5       H        0.67680    0.40780    0.33230    1.000
    H6       H        0.67880    0.44440    0.28460    1.000
    C1       C        0.80180    0.54360    0.54260    1.000
    C2       C        0.82740    0.58780    0.55140    1.000
    C3       C        0.82120    0.61570    0.61600    1.000
    H7       H        0.80480    0.60640    0.65660    1.000
    C4       C        0.83950    0.65740    0.62030    1.000
    H8       H        0.83840    0.67550    0.66770    1.000
    C5       C        0.85920    0.67240    0.55630    1.000
    C6       C        0.86550    0.64470    0.49230    1.000
    H9       H        0.87980    0.65440    0.44930    1.000
    C7       C        0.85060    0.60200    0.49130    1.000
    H10      H        0.85650    0.58350    0.44960    1.000
    C8       C        0.87720    0.71760    0.56140    1.000
    C9       C        0.91670    0.74100    0.66810    1.000
    H11      H        0.93220    0.72810    0.73650    1.000
    C10      C        0.93250    0.78300    0.67150    1.000
    C11      C        0.90800    0.80230    0.56840    1.000
    H12      H        0.91760    0.83070    0.57070    1.000
    C12      C        0.86900    0.78000    0.46090    1.000
    C13      C        0.85420    0.73760    0.45870    1.000
    H13      H        0.82870    0.72220    0.38830    1.000
    C14      C        0.84770    0.80110    0.35480    1.000
    C15      C        0.89790    0.83380    0.37040    1.000
    H14      H        0.94660    0.84220    0.44880    1.000
    C16      C        0.87620    0.85360    0.27170    1.000
    H15      H        0.91090    0.87500    0.28410    1.000
    C17      C        0.80240    0.84240    0.15160    1.000
    C18      C        0.75350    0.80940    0.13600    1.000
    H16      H        0.70510    0.80090    0.05740    1.000
    C19      C        0.77570    0.78910    0.23570    1.000
    H17      H        0.74220    0.76700    0.22320    1.000
    C20      C        0.77720    0.86520    0.04410    1.000
    C21      C        0.97940    0.80880    0.78380    1.000
    C22      C        0.95300    0.84930    0.77550    1.000
    H18      H        0.90000    0.85840    0.70310    1.000
    C23      C        0.00520    0.87650    0.87520    1.000
    H19      H        0.98850    0.90400    0.86710    1.000
    C24      C        0.08090    0.86260    0.98460    1.000
    C25      C        0.10400    0.82180    0.99610    1.000
    H20      H        0.15470    0.81220    0.07090    1.000
    C26      C        0.05260    0.79410    0.89690    1.000
    H21      H        0.06760    0.76610    0.90710    1.000
    C27      C        0.14050    0.89310    0.08740    1.000
    C28      C        0.18420    0.04390    0.18500    1.000
    C29      C        0.16150    0.08950    0.17360    1.000
    C30      C        0.17730    0.11730    0.12050    1.000
    H22      H        0.20080    0.10770    0.08970    1.000
    C31      C        0.15860    0.15930    0.11230    1.000
    H23      H        0.16670    0.17740    0.07220    1.000
    C32      C        0.12800    0.17450    0.16360    1.000
    C33      C        0.11450    0.14620    0.22080    1.000
    H24      H        0.09450    0.15580    0.25660    1.000
    C34      C        0.13050    0.10420    0.22440    1.000
    H25      H        0.12040    0.08570    0.26130    1.000
    C35      C        0.10830    0.21940    0.15700    1.000
    C36      C        0.06820    0.24180    0.05070    1.000
    H26      H        0.05380    0.22840    0.98350    1.000
    C37      C        0.04880    0.28410    0.04220    1.000
    C38      C        0.07260    0.30300    0.14500    1.000
    H27      H        0.06070    0.33110    0.14080    1.000
    C39      C        0.11370    0.28190    0.25490    1.000
    C40      C        0.13110    0.23930    0.25800    1.000
    H28      H        0.15850    0.22430    0.32950    1.000
    C41      C        0.13540    0.30210    0.36150    1.000
    C42      C        0.08370    0.33380    0.34480    1.000
    H29      H        0.03670    0.34300    0.26620    1.000
    C43      C        0.10200    0.35200    0.44500    1.000
    H30      H        0.06650    0.37300    0.43240    1.000
    C44      C        0.17200    0.33940    0.56310    1.000
    C45      C        0.22400    0.30880    0.58060    1.000
    H31      H        0.27200    0.30050    0.65960    1.000
    C46      C        0.20580    0.28960    0.48050    1.000
    H32      H        0.24110    0.26830    0.49390    1.000
    C47      C        0.19310    0.35910    0.67160    1.000
    C48      C        0.99980    0.30820    0.92720    1.000
    C49      C        0.00810    0.35050    0.92970    1.000
    H33      H        0.05010    0.36350    0.00480    1.000
    C50      C        0.95680    0.37460    0.82560    1.000
    H34      H        0.96310    0.40340    0.83240    1.000
    C51      C        0.89730    0.35710    0.71340    1.000
    C52      C        0.88670    0.31420    0.70630    1.000
    H35      H        0.84540    0.30150    0.63040    1.000
    C53      C        0.93690    0.29000    0.81100    1.000
    H36      H        0.92900    0.26130    0.80450    1.000
    C54      C        0.84010    0.38440    0.60290    1.000
    C55      C        0.53550    0.43900    0.31860    1.000
    H37      H        0.55330    0.41170    0.34510    1.000
    C56      C        0.53690    0.50450    0.30430    1.000
    H38      H        0.55680    0.53180    0.32000    1.000
    C57      C        0.45290    0.49250    0.21070    1.000
    C58      C        0.37430    0.51580    0.11250    1.000
    C59      C        0.37880    0.55750    0.09540    1.000
    H39      H        0.43170    0.57100    0.14540    1.000
    C60      C        0.30290    0.57960    0.00180    1.000
    H40      H        0.30510    0.60810    0.99380    1.000
    C61      C        0.22570    0.55910    0.92260    1.000
    H41      H        0.17660    0.57340    0.85770    1.000
    C62      C        0.22050    0.51730    0.93840    1.000
    C63      C        0.29490    0.49650    0.03480    1.000
    H42      H        0.29130    0.46860    0.04780    1.000
    C64      C        0.13790    0.49470    0.85120    1.000
    C65      C        0.05660    0.50920    0.78370    1.000
    H43      H        0.04040    0.53630    0.78210    1.000
    C66      C        0.05090    0.44370    0.74410    1.000
    H44      H        0.02910    0.41740    0.70940    1.000
    C67      C        0.42370    0.92750    0.41530    1.000
    H45      H        0.40490    0.90020    0.40480    1.000
    C68      C        0.42790    0.99480    0.40110    1.000
    H46      H        0.41080    0.02230    0.37650    1.000
    C69      C        0.51060    0.98150    0.48380    1.000
    C70      C        0.59280    0.00460    0.56110    1.000
    C71      C        0.59240    0.04650    0.54810    1.000
    H47      H        0.54080    0.06060    0.49010    1.000
    C72      C        0.67110    0.06840    0.62350    1.000
    H48      H        0.67170    0.09660    0.61050    1.000
    C73      C        0.74490    0.04860    0.71390    1.000
    H49      H        0.79580    0.06360    0.76660    1.000
    C74      C        0.74570    0.00660    0.72900    1.000
    C75      C        0.67010    0.98480    0.64820    1.000
    H50      H        0.67130    0.95590    0.65270    1.000
    C76      C        0.82620    0.98460    0.82900    1.000
    C77      C        0.90970    0.99560    0.89220    1.000
    H51      H        0.92790    0.01970    0.88080    1.000
    C78      C        0.91000    0.93670    0.96070    1.000
    H52      H        0.93000    0.91240    0.00680    1.000
    Cd4      Cd       0.23141    0.96809    0.50656    1.000
    Cd5      Cd       0.22967    0.40828    0.85213    1.000
    Cd6      Cd       0.73267    0.46273    0.22703    1.000
    N9       N        0.08590    0.97110    0.36970    1.000
    N10      N        0.95430    0.95030    0.22260    1.000
    H53      H        0.91090    0.93390    0.17660    1.000
    N11      N        0.63280    0.95260    0.82410    1.000
    N12      N        0.50290    0.97570    0.71830    1.000
    H54      H        0.44780    0.97590    0.66940    1.000
    N13      N        0.87210    0.46120    0.35850    1.000
    N14      N        0.00680    0.43940    0.48990    1.000
    H55      H        0.05040    0.42300    0.53420    1.000
    N15      N        0.32780    0.44710    0.87430    1.000
    N16      N        0.45950    0.46580    0.97250    1.000
    H56      H        0.51470    0.46530    0.02370    1.000
    O14      O        0.32670    0.01520    0.51710    1.000
    O15      O        0.25200    0.03590    0.55940    1.000
    O16      O        0.20860    0.35580    0.94040    1.000
    O17      O        0.32680    0.39277    0.06110    1.000
    O18      O        0.71240    0.38180    0.18490    1.000
    O19      O        0.61580    0.43098    0.06890    1.000
    O20      O        0.65930    0.51859    0.21990    1.000
    O21      O        0.72930    0.53228    0.16440    1.000
    O22      O        0.76180    0.85270    0.77630    1.000
    O23      O        0.63950    0.88554    0.65250    1.000
    O24      O        0.29600    0.86830    0.49850    1.000
    O25      O        0.33820    0.92221    0.62140    1.000
    O26      O        0.20620    0.92934    0.34840    1.000
    H57      H        0.17680    0.90780    0.33230    1.000
    H58      H        0.17880    0.94440    0.28460    1.000
    C79      C        0.30180    0.04360    0.54260    1.000
    C80      C        0.32740    0.08780    0.55140    1.000
    C81      C        0.32120    0.11570    0.61600    1.000
    H59      H        0.30480    0.10640    0.65660    1.000
    C82      C        0.33950    0.15740    0.62030    1.000
    H60      H        0.33840    0.17550    0.66770    1.000
    C83      C        0.35920    0.17240    0.55630    1.000
    C84      C        0.36550    0.14470    0.49230    1.000
    H61      H        0.37980    0.15440    0.44930    1.000
    C85      C        0.35060    0.10200    0.49130    1.000
    H62      H        0.35650    0.08350    0.44960    1.000
    C86      C        0.37720    0.21760    0.56140    1.000
    C87      C        0.41670    0.24100    0.66810    1.000
    H63      H        0.43220    0.22810    0.73650    1.000
    C88      C        0.43250    0.28300    0.67150    1.000
    C89      C        0.40800    0.30230    0.56840    1.000
    H64      H        0.41760    0.33070    0.57070    1.000
    C90      C        0.36900    0.28000    0.46090    1.000
    C91      C        0.35420    0.23760    0.45870    1.000
    H65      H        0.32870    0.22220    0.38830    1.000
    C92      C        0.34770    0.30110    0.35480    1.000
    C93      C        0.39790    0.33380    0.37040    1.000
    H66      H        0.44660    0.34220    0.44880    1.000
    C94      C        0.37620    0.35360    0.27170    1.000
    H67      H        0.41090    0.37500    0.28410    1.000
    C95      C        0.30240    0.34240    0.15160    1.000
    C96      C        0.25350    0.30940    0.13600    1.000
    H68      H        0.20510    0.30090    0.05740    1.000
    C97      C        0.27570    0.28910    0.23570    1.000
    H69      H        0.24220    0.26700    0.22320    1.000
    C98      C        0.27720    0.36520    0.04410    1.000
    C99      C        0.47940    0.30880    0.78380    1.000
    C100     C        0.45300    0.34930    0.77550    1.000
    H70      H        0.40000    0.35840    0.70310    1.000
    C101     C        0.50520    0.37650    0.87520    1.000
    H71      H        0.48850    0.40400    0.86710    1.000
    C102     C        0.58090    0.36260    0.98460    1.000
    C103     C        0.60400    0.32180    0.99610    1.000
    H72      H        0.65470    0.31220    0.07090    1.000
    C104     C        0.55260    0.29410    0.89690    1.000
    H73      H        0.56760    0.26610    0.90710    1.000
    C105     C        0.64050    0.39310    0.08740    1.000
    C106     C        0.68420    0.54390    0.18500    1.000
    C107     C        0.66150    0.58950    0.17360    1.000
    C108     C        0.67730    0.61730    0.12050    1.000
    H74      H        0.70080    0.60770    0.08970    1.000
    C109     C        0.65860    0.65930    0.11230    1.000
    H75      H        0.66670    0.67740    0.07220    1.000
    C110     C        0.62800    0.67450    0.16360    1.000
    C111     C        0.61450    0.64620    0.22080    1.000
    H76      H        0.59450    0.65580    0.25660    1.000
    C112     C        0.63050    0.60420    0.22440    1.000
    H77      H        0.62040    0.58570    0.26130    1.000
    C113     C        0.60830    0.71940    0.15700    1.000
    C114     C        0.56820    0.74180    0.05070    1.000
    H78      H        0.55380    0.72840    0.98350    1.000
    C115     C        0.54880    0.78410    0.04220    1.000
    C116     C        0.57260    0.80300    0.14500    1.000
    H79      H        0.56070    0.83110    0.14080    1.000
    C117     C        0.61370    0.78190    0.25490    1.000
    C118     C        0.63110    0.73930    0.25800    1.000
    H80      H        0.65850    0.72430    0.32950    1.000
    C119     C        0.63540    0.80210    0.36150    1.000
    C120     C        0.58370    0.83380    0.34480    1.000
    H81      H        0.53670    0.84300    0.26620    1.000
    C121     C        0.60200    0.85200    0.44500    1.000
    H82      H        0.56650    0.87300    0.43240    1.000
    C122     C        0.67200    0.83940    0.56310    1.000
    C123     C        0.72400    0.80880    0.58060    1.000
    H83      H        0.77200    0.80050    0.65960    1.000
    C124     C        0.70580    0.78960    0.48050    1.000
    H84      H        0.74110    0.76830    0.49390    1.000
    C125     C        0.69310    0.85910    0.67160    1.000
    C126     C        0.49980    0.80820    0.92720    1.000
    C127     C        0.50810    0.85050    0.92970    1.000
    H85      H        0.55010    0.86350    0.00480    1.000
    C128     C        0.45680    0.87460    0.82560    1.000
    H86      H        0.46310    0.90340    0.83240    1.000
    C129     C        0.39730    0.85710    0.71340    1.000
    C130     C        0.38670    0.81420    0.70630    1.000
    H87      H        0.34540    0.80150    0.63040    1.000
    C131     C        0.43690    0.79000    0.81100    1.000
    H88      H        0.42900    0.76130    0.80450    1.000
    C132     C        0.34010    0.88440    0.60290    1.000
    C133     C        0.03550    0.93900    0.31860    1.000
    H89      H        0.05330    0.91170    0.34510    1.000
    C134     C        0.03690    0.00450    0.30430    1.000
    H90      H        0.05680    0.03180    0.32000    1.000
    C135     C        0.95290    0.99250    0.21070    1.000
    C136     C        0.87430    0.01580    0.11250    1.000
    C137     C        0.87880    0.05750    0.09540    1.000
    H91      H        0.93170    0.07100    0.14540    1.000
    C138     C        0.80290    0.07960    0.00180    1.000
    H92      H        0.80510    0.10810    0.99380    1.000
    C139     C        0.72570    0.05910    0.92260    1.000
    H93      H        0.67660    0.07340    0.85770    1.000
    C140     C        0.72050    0.01730    0.93840    1.000
    C141     C        0.79490    0.99650    0.03480    1.000
    H94      H        0.79130    0.96860    0.04780    1.000
    C142     C        0.63790    0.99470    0.85120    1.000
    C143     C        0.55660    0.00920    0.78370    1.000
    H95      H        0.54040    0.03630    0.78210    1.000
    C144     C        0.55090    0.94370    0.74410    1.000
    H96      H        0.52910    0.91740    0.70940    1.000
    C145     C        0.92370    0.42750    0.41530    1.000
    H97      H        0.90490    0.40020    0.40480    1.000
    C146     C        0.92790    0.49480    0.40110    1.000
    H98      H        0.91080    0.52230    0.37650    1.000
    C147     C        0.01060    0.48150    0.48380    1.000
    C148     C        0.09280    0.50460    0.56110    1.000
    C149     C        0.09240    0.54650    0.54810    1.000
    H99      H        0.04080    0.56060    0.49010    1.000
    C150     C        0.17110    0.56840    0.62350    1.000
    H100     H        0.17170    0.59660    0.61050    1.000
    C151     C        0.24490    0.54860    0.71390    1.000
    H101     H        0.29580    0.56360    0.76660    1.000
    C152     C        0.24570    0.50660    0.72900    1.000
    C153     C        0.17010    0.48480    0.64820    1.000
    H102     H        0.17130    0.45590    0.65270    1.000
    C154     C        0.32620    0.48460    0.82900    1.000
    C155     C        0.40970    0.49560    0.89220    1.000
    H103     H        0.42790    0.51970    0.88080    1.000
    C156     C        0.41000    0.43670    0.96070    1.000
    H104     H        0.43000    0.41240    0.00680    1.000
    Cd7      Cd       0.73141    0.53191    0.00656    1.000
    Cd8      Cd       0.72967    0.09172    0.35213    1.000
    Cd9      Cd       0.23267    0.03727    0.72703    1.000
    N17      N        0.58590    0.52890    0.86970    1.000
    N18      N        0.45430    0.54970    0.72260    1.000
    H105     H        0.41090    0.56610    0.67660    1.000
    N19      N        0.13280    0.54740    0.32410    1.000
    N20      N        0.00290    0.52430    0.21830    1.000
    H106     H        0.94780    0.52410    0.16940    1.000
    N21      N        0.37210    0.03880    0.85850    1.000
    N22      N        0.50680    0.06060    0.98990    1.000
    H107     H        0.55040    0.07700    0.03420    1.000
    N23      N        0.82780    0.05290    0.37430    1.000
    N24      N        0.95950    0.03420    0.47250    1.000
    H108     H        0.01470    0.03470    0.52370    1.000
    O27      O        0.82670    0.48480    0.01710    1.000
    O28      O        0.75200    0.46410    0.05940    1.000
    O29      O        0.70860    0.14420    0.44040    1.000
    O30      O        0.82680    0.10723    0.56110    1.000
    O31      O        0.21240    0.11820    0.68490    1.000
    O32      O        0.11580    0.06902    0.56890    1.000
    O33      O        0.15930    0.98141    0.71990    1.000
    O34      O        0.22930    0.96772    0.66440    1.000
    O35      O        0.26180    0.64730    0.27630    1.000
    O36      O        0.13950    0.61446    0.15250    1.000
    O37      O        0.79600    0.63170    0.99850    1.000
    O38      O        0.83820    0.57779    0.12140    1.000
    O39      O        0.70620    0.57066    0.84840    1.000
    H109     H        0.67680    0.59220    0.83230    1.000
    H110     H        0.67880    0.55560    0.78460    1.000
    C157     C        0.80180    0.45640    0.04260    1.000
    C158     C        0.82740    0.41220    0.05140    1.000
    C159     C        0.82120    0.38430    0.11600    1.000
    H111     H        0.80480    0.39360    0.15660    1.000
    C160     C        0.83950    0.34260    0.12030    1.000
    H112     H        0.83840    0.32450    0.16770    1.000
    C161     C        0.85920    0.32760    0.05630    1.000
    C162     C        0.86550    0.35530    0.99230    1.000
    H113     H        0.87980    0.34560    0.94930    1.000
    C163     C        0.85060    0.39800    0.99130    1.000
    H114     H        0.85650    0.41650    0.94960    1.000
    C164     C        0.87720    0.28240    0.06140    1.000
    C165     C        0.91670    0.25900    0.16810    1.000
    H115     H        0.93220    0.27190    0.23650    1.000
    C166     C        0.93250    0.21700    0.17150    1.000
    C167     C        0.90800    0.19770    0.06840    1.000
    H116     H        0.91760    0.16930    0.07070    1.000
    C168     C        0.86900    0.22000    0.96090    1.000
    C169     C        0.85420    0.26240    0.95870    1.000
    H117     H        0.82870    0.27780    0.88830    1.000
    C170     C        0.84770    0.19890    0.85480    1.000
    C171     C        0.89790    0.16620    0.87040    1.000
    H118     H        0.94660    0.15780    0.94880    1.000
    C172     C        0.87620    0.14640    0.77170    1.000
    H119     H        0.91090    0.12500    0.78410    1.000
    C173     C        0.80240    0.15760    0.65160    1.000
    C174     C        0.75350    0.19060    0.63600    1.000
    H120     H        0.70510    0.19910    0.55740    1.000
    C175     C        0.77570    0.21090    0.73570    1.000
    H121     H        0.74220    0.23300    0.72320    1.000
    C176     C        0.77720    0.13480    0.54410    1.000
    C177     C        0.97940    0.19120    0.28380    1.000
    C178     C        0.95300    0.15070    0.27550    1.000
    H122     H        0.90000    0.14160    0.20310    1.000
    C179     C        0.00520    0.12350    0.37520    1.000
    H123     H        0.98850    0.09600    0.36710    1.000
    C180     C        0.08090    0.13740    0.48460    1.000
    C181     C        0.10400    0.17820    0.49610    1.000
    H124     H        0.15470    0.18780    0.57090    1.000
    C182     C        0.05260    0.20590    0.39690    1.000
    H125     H        0.06760    0.23390    0.40710    1.000
    C183     C        0.14050    0.10690    0.58740    1.000
    C184     C        0.18420    0.95610    0.68500    1.000
    C185     C        0.16150    0.91050    0.67360    1.000
    C186     C        0.17730    0.88270    0.62050    1.000
    H126     H        0.20080    0.89230    0.58970    1.000
    C187     C        0.15860    0.84070    0.61230    1.000
    H127     H        0.16670    0.82260    0.57220    1.000
    C188     C        0.12800    0.82550    0.66360    1.000
    C189     C        0.11450    0.85380    0.72080    1.000
    H128     H        0.09450    0.84420    0.75660    1.000
    C190     C        0.13050    0.89580    0.72440    1.000
    H129     H        0.12040    0.91430    0.76130    1.000
    C191     C        0.10830    0.78060    0.65700    1.000
    C192     C        0.06820    0.75820    0.55070    1.000
    H130     H        0.05380    0.77160    0.48350    1.000
    C193     C        0.04880    0.71590    0.54220    1.000
    C194     C        0.07260    0.69700    0.64500    1.000
    H131     H        0.06070    0.66890    0.64080    1.000
    C195     C        0.11370    0.71810    0.75490    1.000
    C196     C        0.13110    0.76070    0.75800    1.000
    H132     H        0.15850    0.77570    0.82950    1.000
    C197     C        0.13540    0.69790    0.86150    1.000
    C198     C        0.08370    0.66620    0.84480    1.000
    H133     H        0.03670    0.65700    0.76620    1.000
    C199     C        0.10200    0.64800    0.94500    1.000
    H134     H        0.06650    0.62700    0.93240    1.000
    C200     C        0.17200    0.66060    0.06310    1.000
    C201     C        0.22400    0.69120    0.08060    1.000
    H135     H        0.27200    0.69950    0.15960    1.000
    C202     C        0.20580    0.71040    0.98050    1.000
    H136     H        0.24110    0.73170    0.99390    1.000
    C203     C        0.19310    0.64090    0.17160    1.000
    C204     C        0.99980    0.69180    0.42720    1.000
    C205     C        0.00810    0.64950    0.42970    1.000
    H137     H        0.05010    0.63650    0.50480    1.000
    C206     C        0.95680    0.62540    0.32560    1.000
    H138     H        0.96310    0.59660    0.33240    1.000
    C207     C        0.89730    0.64290    0.21340    1.000
    C208     C        0.88670    0.68580    0.20630    1.000
    H139     H        0.84540    0.69850    0.13040    1.000
    C209     C        0.93690    0.71000    0.31100    1.000
    H140     H        0.92900    0.73870    0.30450    1.000
    C210     C        0.84010    0.61560    0.10290    1.000
    C211     C        0.53550    0.56100    0.81860    1.000
    H141     H        0.55330    0.58830    0.84510    1.000
    C212     C        0.53690    0.49550    0.80430    1.000
    H142     H        0.55680    0.46820    0.82000    1.000
    C213     C        0.45290    0.50750    0.71070    1.000
    C214     C        0.37430    0.48420    0.61250    1.000
    C215     C        0.37880    0.44250    0.59540    1.000
    H143     H        0.43170    0.42900    0.64540    1.000
    C216     C        0.30290    0.42040    0.50180    1.000
    H144     H        0.30510    0.39190    0.49380    1.000
    C217     C        0.22570    0.44090    0.42260    1.000
    H145     H        0.17660    0.42660    0.35770    1.000
    C218     C        0.22050    0.48270    0.43840    1.000
    C219     C        0.29490    0.50350    0.53480    1.000
    H146     H        0.29130    0.53140    0.54780    1.000
    C220     C        0.13790    0.50530    0.35120    1.000
    C221     C        0.05660    0.49080    0.28370    1.000
    H147     H        0.04040    0.46370    0.28210    1.000
    C222     C        0.05090    0.55630    0.24410    1.000
    H148     H        0.02910    0.58260    0.20940    1.000
    C223     C        0.42370    0.07250    0.91530    1.000
    H149     H        0.40490    0.09980    0.90480    1.000
    C224     C        0.42790    0.00520    0.90110    1.000
    H150     H        0.41080    0.97770    0.87650    1.000
    C225     C        0.51060    0.01850    0.98380    1.000
    C226     C        0.59280    0.99540    0.06110    1.000
    C227     C        0.59240    0.95350    0.04810    1.000
    H151     H        0.54080    0.93940    0.99010    1.000
    C228     C        0.67110    0.93160    0.12350    1.000
    H152     H        0.67170    0.90340    0.11050    1.000
    C229     C        0.74490    0.95140    0.21390    1.000
    H153     H        0.79580    0.93640    0.26660    1.000
    C230     C        0.74570    0.99340    0.22900    1.000
    C231     C        0.67010    0.01520    0.14820    1.000
    H154     H        0.67130    0.04410    0.15270    1.000
    C232     C        0.82620    0.01540    0.32900    1.000
    C233     C        0.90970    0.00440    0.39220    1.000
    H155     H        0.92790    0.98030    0.38080    1.000
    C234     C        0.91000    0.06330    0.46070    1.000
    H156     H        0.93000    0.08760    0.50680    1.000
    Cd10     Cd       0.23141    0.03191    0.00656    1.000
    Cd11     Cd       0.22967    0.59172    0.35213    1.000
    Cd12     Cd       0.73267    0.53727    0.72703    1.000
    N25      N        0.08590    0.02890    0.86970    1.000
    N26      N        0.95430    0.04970    0.72260    1.000
    H157     H        0.91090    0.06610    0.67660    1.000
    N27      N        0.63280    0.04740    0.32410    1.000
    N28      N        0.50290    0.02430    0.21830    1.000
    H158     H        0.44780    0.02410    0.16940    1.000
    N29      N        0.87210    0.53880    0.85850    1.000
    N30      N        0.00680    0.56060    0.98990    1.000
    H159     H        0.05040    0.57700    0.03420    1.000
    N31      N        0.32780    0.55290    0.37430    1.000
    N32      N        0.45950    0.53420    0.47250    1.000
    H160     H        0.51470    0.53470    0.52370    1.000
    O40      O        0.32670    0.98480    0.01710    1.000
    O41      O        0.25200    0.96410    0.05940    1.000
    O42      O        0.20860    0.64420    0.44040    1.000
    O43      O        0.32680    0.60723    0.56110    1.000
    O44      O        0.71240    0.61820    0.68490    1.000
    O45      O        0.61580    0.56902    0.56890    1.000
    O46      O        0.65930    0.48141    0.71990    1.000
    O47      O        0.72930    0.46772    0.66440    1.000
    O48      O        0.76180    0.14730    0.27630    1.000
    O49      O        0.63950    0.11446    0.15250    1.000
    O50      O        0.29600    0.13170    0.99850    1.000
    O51      O        0.33820    0.07779    0.12140    1.000
    O52      O        0.20620    0.07066    0.84840    1.000
    H161     H        0.17680    0.09220    0.83230    1.000
    H162     H        0.17880    0.05560    0.78460    1.000
    C235     C        0.30180    0.95640    0.04260    1.000
    C236     C        0.32740    0.91220    0.05140    1.000
    C237     C        0.32120    0.88430    0.11600    1.000
    H163     H        0.30480    0.89360    0.15660    1.000
    C238     C        0.33950    0.84260    0.12030    1.000
    H164     H        0.33840    0.82450    0.16770    1.000
    C239     C        0.35920    0.82760    0.05630    1.000
    C240     C        0.36550    0.85530    0.99230    1.000
    H165     H        0.37980    0.84560    0.94930    1.000
    C241     C        0.35060    0.89800    0.99130    1.000
    H166     H        0.35650    0.91650    0.94960    1.000
    C242     C        0.37720    0.78240    0.06140    1.000
    C243     C        0.41670    0.75900    0.16810    1.000
    H167     H        0.43220    0.77190    0.23650    1.000
    C244     C        0.43250    0.71700    0.17150    1.000
    C245     C        0.40800    0.69770    0.06840    1.000
    H168     H        0.41760    0.66930    0.07070    1.000
    C246     C        0.36900    0.72000    0.96090    1.000
    C247     C        0.35420    0.76240    0.95870    1.000
    H169     H        0.32870    0.77780    0.88830    1.000
    C248     C        0.34770    0.69890    0.85480    1.000
    C249     C        0.39790    0.66620    0.87040    1.000
    H170     H        0.44660    0.65780    0.94880    1.000
    C250     C        0.37620    0.64640    0.77170    1.000
    H171     H        0.41090    0.62500    0.78410    1.000
    C251     C        0.30240    0.65760    0.65160    1.000
    C252     C        0.25350    0.69060    0.63600    1.000
    H172     H        0.20510    0.69910    0.55740    1.000
    C253     C        0.27570    0.71090    0.73570    1.000
    H173     H        0.24220    0.73300    0.72320    1.000
    C254     C        0.27720    0.63480    0.54410    1.000
    C255     C        0.47940    0.69120    0.28380    1.000
    C256     C        0.45300    0.65070    0.27550    1.000
    H174     H        0.40000    0.64160    0.20310    1.000
    C257     C        0.50520    0.62350    0.37520    1.000
    H175     H        0.48850    0.59600    0.36710    1.000
    C258     C        0.58090    0.63740    0.48460    1.000
    C259     C        0.60400    0.67820    0.49610    1.000
    H176     H        0.65470    0.68780    0.57090    1.000
    C260     C        0.55260    0.70590    0.39690    1.000
    H177     H        0.56760    0.73390    0.40710    1.000
    C261     C        0.64050    0.60690    0.58740    1.000
    C262     C        0.68420    0.45610    0.68500    1.000
    C263     C        0.66150    0.41050    0.67360    1.000
    C264     C        0.67730    0.38270    0.62050    1.000
    H178     H        0.70080    0.39230    0.58970    1.000
    C265     C        0.65860    0.34070    0.61230    1.000
    H179     H        0.66670    0.32260    0.57220    1.000
    C266     C        0.62800    0.32550    0.66360    1.000
    C267     C        0.61450    0.35380    0.72080    1.000
    H180     H        0.59450    0.34420    0.75660    1.000
    C268     C        0.63050    0.39580    0.72440    1.000
    H181     H        0.62040    0.41430    0.76130    1.000
    C269     C        0.60830    0.28060    0.65700    1.000
    C270     C        0.56820    0.25820    0.55070    1.000
    H182     H        0.55380    0.27160    0.48350    1.000
    C271     C        0.54880    0.21590    0.54220    1.000
    C272     C        0.57260    0.19700    0.64500    1.000
    H183     H        0.56070    0.16890    0.64080    1.000
    C273     C        0.61370    0.21810    0.75490    1.000
    C274     C        0.63110    0.26070    0.75800    1.000
    H184     H        0.65850    0.27570    0.82950    1.000
    C275     C        0.63540    0.19790    0.86150    1.000
    C276     C        0.58370    0.16620    0.84480    1.000
    H185     H        0.53670    0.15700    0.76620    1.000
    C277     C        0.60200    0.14800    0.94500    1.000
    H186     H        0.56650    0.12700    0.93240    1.000
    C278     C        0.67200    0.16060    0.06310    1.000
    C279     C        0.72400    0.19120    0.08060    1.000
    H187     H        0.77200    0.19950    0.15960    1.000
    C280     C        0.70580    0.21040    0.98050    1.000
    H188     H        0.74110    0.23170    0.99390    1.000
    C281     C        0.69310    0.14090    0.17160    1.000
    C282     C        0.49980    0.19180    0.42720    1.000
    C283     C        0.50810    0.14950    0.42970    1.000
    H189     H        0.55010    0.13650    0.50480    1.000
    C284     C        0.45680    0.12540    0.32560    1.000
    H190     H        0.46310    0.09660    0.33240    1.000
    C285     C        0.39730    0.14290    0.21340    1.000
    C286     C        0.38670    0.18580    0.20630    1.000
    H191     H        0.34540    0.19850    0.13040    1.000
    C287     C        0.43690    0.21000    0.31100    1.000
    H192     H        0.42900    0.23870    0.30450    1.000
    C288     C        0.34010    0.11560    0.10290    1.000
    C289     C        0.03550    0.06100    0.81860    1.000
    H193     H        0.05330    0.08830    0.84510    1.000
    C290     C        0.03690    0.99550    0.80430    1.000
    H194     H        0.05680    0.96820    0.82000    1.000
    C291     C        0.95290    0.00750    0.71070    1.000
    C292     C        0.87430    0.98420    0.61250    1.000
    C293     C        0.87880    0.94250    0.59540    1.000
    H195     H        0.93170    0.92900    0.64540    1.000
    C294     C        0.80290    0.92040    0.50180    1.000
    H196     H        0.80510    0.89190    0.49380    1.000
    C295     C        0.72570    0.94090    0.42260    1.000
    H197     H        0.67660    0.92660    0.35770    1.000
    C296     C        0.72050    0.98270    0.43840    1.000
    C297     C        0.79490    0.00350    0.53480    1.000
    H198     H        0.79130    0.03140    0.54780    1.000
    C298     C        0.63790    0.00530    0.35120    1.000
    C299     C        0.55660    0.99080    0.28370    1.000
    H199     H        0.54040    0.96370    0.28210    1.000
    C300     C        0.55090    0.05630    0.24410    1.000
    H200     H        0.52910    0.08260    0.20940    1.000
    C301     C        0.92370    0.57250    0.91530    1.000
    H201     H        0.90490    0.59980    0.90480    1.000
    C302     C        0.92790    0.50520    0.90110    1.000
    H202     H        0.91080    0.47770    0.87650    1.000
    C303     C        0.01060    0.51850    0.98380    1.000
    C304     C        0.09280    0.49540    0.06110    1.000
    C305     C        0.09240    0.45350    0.04810    1.000
    H203     H        0.04080    0.43940    0.99010    1.000
    C306     C        0.17110    0.43160    0.12350    1.000
    H204     H        0.17170    0.40340    0.11050    1.000
    C307     C        0.24490    0.45140    0.21390    1.000
    H205     H        0.29580    0.43640    0.26660    1.000
    C308     C        0.24570    0.49340    0.22900    1.000
    C309     C        0.17010    0.51520    0.14820    1.000
    H206     H        0.17130    0.54410    0.15270    1.000
    C310     C        0.32620    0.51540    0.32900    1.000
    C311     C        0.40970    0.50440    0.39220    1.000
    H207     H        0.42790    0.48030    0.38080    1.000
    C312     C        0.41000    0.56330    0.46070    1.000
    H208     H        0.43000    0.58760    0.50680    1.000
