# CIF file generated by openbabel 3.1.0, see https://openbabel.org
data_I
_chemical_name_common 'ZEJCUO_clean'
_cell_length_a 4.968
_cell_length_b 11.621
_cell_length_c 19.669
_cell_angle_alpha 107.16
_cell_angle_beta 90
_cell_angle_gamma 90
_space_group_name_H-M_alt 'P 1'
_space_group_name_Hall 'P 1'
loop_
    _symmetry_equiv_pos_as_xyz
    x,y,z
loop_
    _atom_site_label
    _atom_site_type_symbol
    _atom_site_fract_x
    _atom_site_fract_y
    _atom_site_fract_z
    _atom_site_occupancy
    Mn1      Mn       0.72526    0.61730    0.73122    1.000
    Mn2      Mn       0.72065    0.87847    0.25697    1.000
    Mn3      Mn       0.22395    0.87868    0.75777    1.000
    Mn4      Mn       0.22590    0.61860    0.23400    1.000
    Mn5      Mn       0.72526    0.38270    0.26878    1.000
    Mn6      Mn       0.72065    0.12153    0.74303    1.000
    Mn7      Mn       0.22395    0.12132    0.24223    1.000
    Mn8      Mn       0.22590    0.38140    0.76600    1.000
    P1       P        0.28820    0.67320    0.83625    1.000
    P2       P        0.28330    0.83220    0.15535    1.000
    P3       P        0.78450    0.32670    0.66260    1.000
    P4       P        0.78690    0.16750    0.34250    1.000
    P5       P        0.28820    0.32680    0.16375    1.000
    P6       P        0.28330    0.16780    0.84465    1.000
    P7       P        0.78450    0.67330    0.33740    1.000
    P8       P        0.78690    0.83250    0.65750    1.000
    H1       H        0.75726    0.76122    0.93202    1.000
    H2       H        0.76093    0.80588    0.06421    1.000
    H3       H        0.84766    0.07616    0.56490    1.000
    H4       H        0.96171    0.02587    0.43491    1.000
    H5       H        0.75726    0.23878    0.06798    1.000
    H6       H        0.76093    0.19412    0.93579    1.000
    H7       H        0.84766    0.92384    0.43510    1.000
    H8       H        0.96171    0.97413    0.56509    1.000
    C1       C        0.34700    0.73290    0.93030    1.000
    C2       C        0.36070    0.79380    0.06330    1.000
    C3       C        0.59820    0.76110    0.95970    1.000
    C4       C        0.59950    0.79040    0.03620    1.000
    C5       C        0.83300    0.18780    0.43570    1.000
    C6       C        0.84700    0.26630    0.56850    1.000
    C7       C        0.86070    0.13290    0.53810    1.000
    C8       C        0.89610    0.10290    0.46300    1.000
    C9       C        0.34700    0.26710    0.06970    1.000
    C10      C        0.36070    0.20620    0.93670    1.000
    C11      C        0.59820    0.23890    0.04030    1.000
    C12      C        0.59950    0.20960    0.96380    1.000
    C13      C        0.83300    0.81220    0.56430    1.000
    C14      C        0.84700    0.73370    0.43150    1.000
    C15      C        0.86070    0.86710    0.46190    1.000
    C16      C        0.89610    0.89710    0.53700    1.000
    S1       S        0.11430    0.74430    0.99681    1.000
    S2       S        0.80670    0.32770    0.50280    1.000
    S3       S        0.11430    0.25570    0.00319    1.000
    S4       S        0.80670    0.67230    0.49720    1.000
    O1       O        0.43200    0.74940    0.79900    1.000
    O2       O        0.43500    0.54850    0.80700    1.000
    O3       O        0.99220    0.66560    0.82180    1.000
    O4       O        0.42900    0.73330    0.18470    1.000
    O5       O        0.43000    0.95410    0.19030    1.000
    O6       O        0.98050    0.83580    0.16720    1.000
    O7       O        0.92800    0.23990    0.69920    1.000
    O8       O        0.93200    0.45060    0.68630    1.000
    O9       O        0.48400    0.33390    0.67460    1.000
    O10      O        0.92300    0.25830    0.31460    1.000
    O11      O        0.92000    0.04520    0.30330    1.000
    O12      O        0.48700    0.16670    0.33140    1.000
    O13      O        0.43200    0.25060    0.20100    1.000
    O14      O        0.43500    0.45150    0.19300    1.000
    O15      O        0.99220    0.33440    0.17820    1.000
    O16      O        0.42900    0.26670    0.81530    1.000
    O17      O        0.43000    0.04590    0.80970    1.000
    O18      O        0.98050    0.16420    0.83280    1.000
    O19      O        0.92800    0.76010    0.30080    1.000
    O20      O        0.93200    0.54940    0.31370    1.000
    O21      O        0.48400    0.66610    0.32540    1.000
    O22      O        0.92300    0.74170    0.68540    1.000
    O23      O        0.92000    0.95480    0.69670    1.000
    O24      O        0.48700    0.83330    0.66860    1.000
