# CIF file generated by openbabel 3.1.0, see https://openbabel.org
data_I
_chemical_name_common 'QULLEP_clean'
_cell_length_a 9.6755
_cell_length_b 12.264
_cell_length_c 28.899
_cell_angle_alpha 90
_cell_angle_beta 90
_cell_angle_gamma 90
_space_group_name_H-M_alt 'P 1'
_space_group_name_Hall 'P 1'
loop_
    _symmetry_equiv_pos_as_xyz
    x,y,z
loop_
    _atom_site_label
    _atom_site_type_symbol
    _atom_site_fract_x
    _atom_site_fract_y
    _atom_site_fract_z
    _atom_site_occupancy
    Cd1      Cd       0.50061    0.84551    0.02635    1.000
    Cd2      Cd       0.50061    0.15449    0.97365    1.000
    Cd3      Cd       0.00061    0.84551    0.47365    1.000
    Cd4      Cd       0.00061    0.15449    0.52635    1.000
    H1       H        0.73770    0.51820    0.08960    1.000
    H2       H        0.79440    0.39450    0.14740    1.000
    H3       H        0.57840    0.56910    0.23930    1.000
    H4       H        0.52030    0.69040    0.18210    1.000
    H5       H        0.72760    0.47360    0.29000    1.000
    H6       H        0.58890    0.41010    0.28020    1.000
    H7       H        0.70080    0.04870    0.32010    1.000
    H8       H        0.90370    0.07070    0.36170    1.000
    H9       H        0.00830    0.23730    0.36610    1.000
    H10      H        0.90470    0.38810    0.33240    1.000
    H11      H        0.58040    0.18320    0.23790    1.000
    H12      H        0.49460    0.25110    0.27370    1.000
    H13      H        0.46080    0.23610    0.35030    1.000
    H14      H        0.30190    0.95430    0.30440    1.000
    H15      H        0.32580    0.22250    0.41620    1.000
    H16      H        0.16010    0.94570    0.36880    1.000
    H17      H        0.53510    0.63190    0.95620    1.000
    H18      H        0.40840    0.49650    0.92090    1.000
    H19      H        0.17100    0.49310    0.92950    1.000
    H20      H        0.95750    0.57960    0.96340    1.000
    H21      H        0.86000    0.71060    0.00620    1.000
    H22      H        0.88760    0.88420    0.05330    1.000
    H23      H        0.02740    0.01790    0.08300    1.000
    H24      H        0.26440    0.00650    0.07070    1.000
    H25      H        0.73770    0.48180    0.91040    1.000
    H26      H        0.79440    0.60550    0.85260    1.000
    H27      H        0.57840    0.43090    0.76070    1.000
    H28      H        0.52030    0.30960    0.81790    1.000
    H29      H        0.72760    0.52640    0.71000    1.000
    H30      H        0.58890    0.58990    0.71980    1.000
    H31      H        0.70080    0.95130    0.67990    1.000
    H32      H        0.90370    0.92930    0.63830    1.000
    H33      H        0.00830    0.76270    0.63390    1.000
    H34      H        0.90470    0.61190    0.66760    1.000
    H35      H        0.58040    0.81680    0.76210    1.000
    H36      H        0.49460    0.74890    0.72630    1.000
    H37      H        0.46080    0.76390    0.64970    1.000
    H38      H        0.30190    0.04570    0.69560    1.000
    H39      H        0.32580    0.77750    0.58380    1.000
    H40      H        0.16010    0.05430    0.63120    1.000
    H41      H        0.53510    0.36810    0.04380    1.000
    H42      H        0.40840    0.50350    0.07910    1.000
    H43      H        0.17100    0.50690    0.07050    1.000
    H44      H        0.95750    0.42040    0.03660    1.000
    H45      H        0.86000    0.28940    0.99380    1.000
    H46      H        0.88760    0.11580    0.94670    1.000
    H47      H        0.02740    0.98210    0.91700    1.000
    H48      H        0.26440    0.99350    0.92930    1.000
    H49      H        0.23770    0.51820    0.41040    1.000
    H50      H        0.29440    0.39450    0.35260    1.000
    H51      H        0.07840    0.56910    0.26070    1.000
    H52      H        0.02030    0.69040    0.31790    1.000
    H53      H        0.22760    0.47360    0.21000    1.000
    H54      H        0.08890    0.41010    0.21980    1.000
    H55      H        0.20080    0.04870    0.17990    1.000
    H56      H        0.40370    0.07070    0.13830    1.000
    H57      H        0.50830    0.23730    0.13390    1.000
    H58      H        0.40470    0.38810    0.16760    1.000
    H59      H        0.08040    0.18320    0.26210    1.000
    H60      H        0.99460    0.25110    0.22630    1.000
    H61      H        0.96080    0.23610    0.14970    1.000
    H62      H        0.80190    0.95430    0.19560    1.000
    H63      H        0.82580    0.22250    0.08380    1.000
    H64      H        0.66010    0.94570    0.13120    1.000
    H65      H        0.03510    0.63190    0.54380    1.000
    H66      H        0.90840    0.49650    0.57910    1.000
    H67      H        0.67100    0.49310    0.57050    1.000
    H68      H        0.45750    0.57960    0.53660    1.000
    H69      H        0.36000    0.71060    0.49380    1.000
    H70      H        0.38760    0.88420    0.44670    1.000
    H71      H        0.52740    0.01790    0.41700    1.000
    H72      H        0.76440    0.00650    0.42930    1.000
    H73      H        0.23770    0.48180    0.58960    1.000
    H74      H        0.29440    0.60550    0.64740    1.000
    H75      H        0.07840    0.43090    0.73930    1.000
    H76      H        0.02030    0.30960    0.68210    1.000
    H77      H        0.22760    0.52640    0.79000    1.000
    H78      H        0.08890    0.58990    0.78020    1.000
    H79      H        0.20080    0.95130    0.82010    1.000
    H80      H        0.40370    0.92930    0.86170    1.000
    H81      H        0.50830    0.76270    0.86610    1.000
    H82      H        0.40470    0.61190    0.83240    1.000
    H83      H        0.08040    0.81680    0.73790    1.000
    H84      H        0.99460    0.74890    0.77370    1.000
    H85      H        0.96080    0.76390    0.85030    1.000
    H86      H        0.80190    0.04570    0.80440    1.000
    H87      H        0.82580    0.77750    0.91620    1.000
    H88      H        0.66010    0.05430    0.86880    1.000
    H89      H        0.03510    0.36810    0.45620    1.000
    H90      H        0.90840    0.50350    0.42090    1.000
    H91      H        0.67100    0.50690    0.42950    1.000
    H92      H        0.45750    0.42040    0.46340    1.000
    H93      H        0.36000    0.28940    0.50620    1.000
    H94      H        0.38760    0.11580    0.55330    1.000
    H95      H        0.52740    0.98210    0.58300    1.000
    H96      H        0.76440    0.99350    0.57070    1.000
    C1       C        0.58590    0.69810    0.09309    1.000
    C2       C        0.62270    0.61930    0.12965    1.000
    C3       C        0.70520    0.52880    0.11957    1.000
    C4       C        0.73910    0.45440    0.15422    1.000
    C5       C        0.69050    0.46940    0.19875    1.000
    C6       C        0.60990    0.55830    0.20921    1.000
    C7       C        0.57620    0.63110    0.17484    1.000
    C8       C        0.68880    0.40690    0.27754    1.000
    C9       C        0.74600    0.30730    0.30291    1.000
    C10      C        0.68270    0.20480    0.29909    1.000
    C11      C        0.74230    0.11700    0.32170    1.000
    C12      C        0.86420    0.13040    0.34685    1.000
    C13      C        0.92580    0.22960    0.34996    1.000
    C14      C        0.86510    0.31940    0.32900    1.000
    C15      C        0.55390    0.18790    0.27025    1.000
    C16      C        0.39620    0.09570    0.32123    1.000
    C17      C        0.40210    0.17680    0.35423    1.000
    C18      C        0.30600    0.00890    0.32665    1.000
    C19      C        0.31940    0.16910    0.39342    1.000
    C20      C        0.22140    0.00360    0.36550    1.000
    C21      C        0.22740    0.08350    0.39929    1.000
    C22      C        0.13740    0.07930    0.44147    1.000
    C23      C        0.43940    0.63240    0.95920    1.000
    C24      C        0.36380    0.55010    0.93810    1.000
    C25      C        0.22300    0.54860    0.94280    1.000
    C26      C        0.15900    0.63120    0.96793    1.000
    C27      C        0.01300    0.63380    0.97609    1.000
    C28      C        0.95500    0.71180    0.00140    1.000
    C29      C        0.03520    0.79740    0.02151    1.000
    C30      C        0.98230    0.88160    0.04780    1.000
    C31      C        0.06460    0.96080    0.06580    1.000
    C32      C        0.20690    0.95390    0.05788    1.000
    C33      C        0.18050    0.79810    0.01464    1.000
    C34      C        0.24240    0.71190    0.98779    1.000
    C35      C        0.58590    0.30190    0.90691    1.000
    C36      C        0.62270    0.38070    0.87035    1.000
    C37      C        0.70520    0.47120    0.88043    1.000
    C38      C        0.73910    0.54560    0.84578    1.000
    C39      C        0.69050    0.53060    0.80125    1.000
    C40      C        0.60990    0.44170    0.79079    1.000
    C41      C        0.57620    0.36890    0.82516    1.000
    C42      C        0.68880    0.59310    0.72246    1.000
    C43      C        0.74600    0.69270    0.69709    1.000
    C44      C        0.68270    0.79520    0.70091    1.000
    C45      C        0.74230    0.88300    0.67830    1.000
    C46      C        0.86420    0.86960    0.65315    1.000
    C47      C        0.92580    0.77040    0.65004    1.000
    C48      C        0.86510    0.68060    0.67100    1.000
    C49      C        0.55390    0.81210    0.72975    1.000
    C50      C        0.39620    0.90430    0.67877    1.000
    C51      C        0.40210    0.82320    0.64577    1.000
    C52      C        0.30600    0.99110    0.67335    1.000
    C53      C        0.31940    0.83090    0.60658    1.000
    C54      C        0.22140    0.99640    0.63450    1.000
    C55      C        0.22740    0.91650    0.60071    1.000
    C56      C        0.13740    0.92070    0.55853    1.000
    C57      C        0.43940    0.36760    0.04080    1.000
    C58      C        0.36380    0.44990    0.06190    1.000
    C59      C        0.22300    0.45140    0.05720    1.000
    C60      C        0.15900    0.36880    0.03207    1.000
    C61      C        0.01300    0.36620    0.02391    1.000
    C62      C        0.95500    0.28820    0.99860    1.000
    C63      C        0.03520    0.20260    0.97849    1.000
    C64      C        0.98230    0.11840    0.95220    1.000
    C65      C        0.06460    0.03920    0.93420    1.000
    C66      C        0.20690    0.04610    0.94212    1.000
    C67      C        0.18050    0.20190    0.98536    1.000
    C68      C        0.24240    0.28810    0.01221    1.000
    C69      C        0.08590    0.69810    0.40691    1.000
    C70      C        0.12270    0.61930    0.37035    1.000
    C71      C        0.20520    0.52880    0.38043    1.000
    C72      C        0.23910    0.45440    0.34578    1.000
    C73      C        0.19050    0.46940    0.30125    1.000
    C74      C        0.10990    0.55830    0.29079    1.000
    C75      C        0.07620    0.63110    0.32516    1.000
    C76      C        0.18880    0.40690    0.22246    1.000
    C77      C        0.24600    0.30730    0.19709    1.000
    C78      C        0.18270    0.20480    0.20091    1.000
    C79      C        0.24230    0.11700    0.17830    1.000
    C80      C        0.36420    0.13040    0.15315    1.000
    C81      C        0.42580    0.22960    0.15004    1.000
    C82      C        0.36510    0.31940    0.17100    1.000
    C83      C        0.05390    0.18790    0.22975    1.000
    C84      C        0.89620    0.09570    0.17877    1.000
    C85      C        0.90210    0.17680    0.14577    1.000
    C86      C        0.80600    0.00890    0.17335    1.000
    C87      C        0.81940    0.16910    0.10658    1.000
    C88      C        0.72140    0.00360    0.13450    1.000
    C89      C        0.72740    0.08350    0.10071    1.000
    C90      C        0.63740    0.07930    0.05853    1.000
    C91      C        0.93940    0.63240    0.54080    1.000
    C92      C        0.86380    0.55010    0.56190    1.000
    C93      C        0.72300    0.54860    0.55720    1.000
    C94      C        0.65900    0.63120    0.53207    1.000
    C95      C        0.51300    0.63380    0.52391    1.000
    C96      C        0.45500    0.71180    0.49860    1.000
    C97      C        0.53520    0.79740    0.47849    1.000
    C98      C        0.48230    0.88160    0.45220    1.000
    C99      C        0.56460    0.96080    0.43420    1.000
    C100     C        0.70690    0.95390    0.44212    1.000
    C101     C        0.68050    0.79810    0.48536    1.000
    C102     C        0.74240    0.71190    0.51221    1.000
    C103     C        0.08590    0.30190    0.59309    1.000
    C104     C        0.12270    0.38070    0.62965    1.000
    C105     C        0.20520    0.47120    0.61957    1.000
    C106     C        0.23910    0.54560    0.65422    1.000
    C107     C        0.19050    0.53060    0.69875    1.000
    C108     C        0.10990    0.44170    0.70921    1.000
    C109     C        0.07620    0.36890    0.67484    1.000
    C110     C        0.18880    0.59310    0.77754    1.000
    C111     C        0.24600    0.69270    0.80291    1.000
    C112     C        0.18270    0.79520    0.79909    1.000
    C113     C        0.24230    0.88300    0.82170    1.000
    C114     C        0.36420    0.86960    0.84685    1.000
    C115     C        0.42580    0.77040    0.84996    1.000
    C116     C        0.36510    0.68060    0.82900    1.000
    C117     C        0.05390    0.81210    0.77025    1.000
    C118     C        0.89620    0.90430    0.82123    1.000
    C119     C        0.90210    0.82320    0.85423    1.000
    C120     C        0.80600    0.99110    0.82665    1.000
    C121     C        0.81940    0.83090    0.89342    1.000
    C122     C        0.72140    0.99640    0.86550    1.000
    C123     C        0.72740    0.91650    0.89929    1.000
    C124     C        0.63740    0.92070    0.94147    1.000
    C125     C        0.93940    0.36760    0.45920    1.000
    C126     C        0.86380    0.44990    0.43810    1.000
    C127     C        0.72300    0.45140    0.44280    1.000
    C128     C        0.65900    0.36880    0.46793    1.000
    C129     C        0.51300    0.36620    0.47609    1.000
    C130     C        0.45500    0.28820    0.50140    1.000
    C131     C        0.53520    0.20260    0.52151    1.000
    C132     C        0.48230    0.11840    0.54780    1.000
    C133     C        0.56460    0.03920    0.56580    1.000
    C134     C        0.70690    0.04610    0.55788    1.000
    C135     C        0.68050    0.20190    0.51464    1.000
    C136     C        0.74240    0.28810    0.48779    1.000
    N1       N        0.38140    0.71130    0.98331    1.000
    N2       N        0.26290    0.87520    0.03274    1.000
    N3       N        0.38140    0.28870    0.01669    1.000
    N4       N        0.26290    0.12480    0.96726    1.000
    N5       N        0.88140    0.71130    0.51669    1.000
    N6       N        0.76290    0.87520    0.46726    1.000
    N7       N        0.88140    0.28870    0.48331    1.000
    N8       N        0.76290    0.12480    0.53274    1.000
    O1       O        0.16260    0.14740    0.47279    1.000
    O2       O        0.63920    0.68850    0.05397    1.000
    O3       O        0.03760    0.01360    0.44296    1.000
    O4       O        0.49880    0.77200    0.10099    1.000
    O5       O        0.73010    0.39180    0.22991    1.000
    O6       O        0.47750    0.09340    0.28206    1.000
    O7       O        0.16260    0.85260    0.52721    1.000
    O8       O        0.63920    0.31150    0.94603    1.000
    O9       O        0.03760    0.98640    0.55704    1.000
    O10      O        0.49880    0.22800    0.89901    1.000
    O11      O        0.73010    0.60820    0.77009    1.000
    O12      O        0.47750    0.90660    0.71794    1.000
    O13      O        0.66260    0.14740    0.02721    1.000
    O14      O        0.13920    0.68850    0.44603    1.000
    O15      O        0.53760    0.01360    0.05704    1.000
    O16      O        0.99880    0.77200    0.39901    1.000
    O17      O        0.23010    0.39180    0.27009    1.000
    O18      O        0.97750    0.09340    0.21794    1.000
    O19      O        0.66260    0.85260    0.97279    1.000
    O20      O        0.13920    0.31150    0.55397    1.000
    O21      O        0.53760    0.98640    0.94296    1.000
    O22      O        0.99880    0.22800    0.60099    1.000
    O23      O        0.23010    0.60820    0.72991    1.000
    O24      O        0.97750    0.90660    0.78206    1.000
