# CIF file generated by openbabel 3.1.0, see https://openbabel.org
data_I
_chemical_name_common 'image0'
_cell_length_a 29.3948
_cell_length_b 21.2938
_cell_length_c 28.618
_cell_angle_alpha 90
_cell_angle_beta 110.722
_cell_angle_gamma 90
_space_group_name_H-M_alt 'P 1'
_space_group_name_Hall 'P 1'
loop_
    _symmetry_equiv_pos_as_xyz
    x,y,z
loop_
    _atom_site_label
    _atom_site_type_symbol
    _atom_site_fract_x
    _atom_site_fract_y
    _atom_site_fract_z
    _atom_site_occupancy
    W1       W        0.40681    0.31118    0.23972    1.000
    O1       O        0.41440    0.25120    0.29030    1.000
    O2       O        0.35630    0.27020    0.19460    1.000
    O3       O        0.42630    0.35740    0.19230    1.000
    O4       O        0.47480    0.33960    0.29100    1.000
    O5       O        0.45930    0.24850    0.21740    1.000
    W2       W        0.45045    0.19145    0.33949    1.000
    W3       W        0.30673    0.20308    0.15929    1.000
    W4       W        0.46812    0.31901    0.16201    1.000
    O6       O        0.50240    0.25180    0.35920    1.000
    O7       O        0.49190    0.12490    0.37430    1.000
    O8       O        0.48100    0.16480    0.28280    1.000
    O9       O        0.40200    0.12960    0.30620    1.000
    O10      O        0.31240    0.23560    0.09930    1.000
    O11      O        0.27730    0.13050    0.13050    1.000
    O12      O        0.32950    0.16510    0.22290    1.000
    O13      O        0.37500    0.15970    0.14910    1.000
    O14      O        0.40550    0.27340    0.11820    1.000
    W5       W        0.54679    0.08320    0.41727    1.000
    W6       W        0.35004    0.08813    0.26033    1.000
    W7       W        0.36733    0.21316    0.08089    1.000
    W8       W        0.27720    0.03199    0.13231    1.000
    P1       P        0.39160    0.09090    0.16287    1.000
    O15      O        0.58260    0.16220    0.42270    1.000
    O16      O        0.51800    0.00550    0.39950    1.000
    O17      O        0.56310    0.07650    0.34980    1.000
    O18      O        0.60870    0.04630    0.44900    1.000
    O19      O        0.53320    0.09870    0.47150    1.000
    O20      O        0.39980    0.07990    0.21740    1.000
    O21      O        0.30560    0.04600    0.20020    1.000
    O22      O        0.37820    0.00880    0.28380    1.000
    O23      O        0.34850    0.24960    0.02220    1.000
    O24      O        0.32610    0.13380    0.04910    1.000
    O25      O        0.21510    0.03220    0.12360    1.000
    O26      O        0.26780    0.04010    0.06190    1.000
    O27      O        0.28730    0.94940    0.13550    1.000
    O28      O        0.34910    0.04850    0.12840    1.000
    W9       W        0.50980    0.91522    0.38786    1.000
    W10      W        0.67676    0.04902    0.45798    1.000
    Cu1      Cu       0.48153    0.14688    0.48804    1.000
    Cu2      Cu       0.27802    0.08501    0.36189    1.000
    W11      W        0.38647    0.92109    0.28817    1.000
    Cu3      Cu       0.34742    0.31636    0.97338    1.000
    Cu4      Cu       0.14840    0.06004    0.10103    1.000
    W12      W        0.31445    0.86181    0.16503    1.000
    O29      O        0.57770    0.90560    0.42200    1.000
    O30      O        0.53130    0.93900    0.32510    1.000
    O31      O        0.49270    0.90150    0.43950    1.000
    O32      O        0.50810    0.83200    0.36620    1.000
    O33      O        0.44750    0.93310    0.34150    1.000
    O34      O        0.66850    0.95610    0.44330    1.000
    O35      O        0.27710    0.99650    0.35570    1.000
    N1       N        0.34880    0.07740    0.40730    1.000
    O36      O        0.43090    0.93950    0.24210    1.000
    O37      O        0.33570    0.90810    0.22560    1.000
    O38      O        0.40620    0.83530    0.28300    1.000
    O39      O        0.16750    0.14420    0.09050    1.000
    N2       N        0.07850    0.07670    0.06660    1.000
    N3       N        0.12270    0.97190    0.10530    1.000
    O40      O        0.31090    0.84510    0.09830    1.000
    O41      O        0.35470    0.79760    0.19410    1.000
    O42      O        0.38110    0.90630    0.15440    1.000
    W13      W        0.64101    0.87889    0.42587    1.000
    P2       P        0.56700    0.90683    0.30451    1.000
    W14      W        0.54448    0.76602    0.34940    1.000
    Cu5      Cu       0.32973    0.94330    0.38938    1.000
    H1       H        0.24860    0.97790    0.33450    1.000
    N4       N        0.37120    0.01990    0.40950    1.000
    W15      W        0.41861    0.76596    0.24844    1.000
    H2       H        0.18520    0.16730    0.11860    1.000
    O43      O        0.59970    0.80090    0.39060    1.000
    O44      O        0.55230    0.83750    0.29210    1.000
    N5       N        0.57140    0.91240    0.54970    1.000
    N6       N        0.57570    0.80260    0.51340    1.000
    N7       N        0.47430    0.77880    0.48870    1.000
    O45      O        0.57200    0.72300    0.30700    1.000
    O46      O        0.47950    0.75340    0.29170    1.000
    N8       N        0.08840    0.21410    0.02540    1.000
    C1       C        0.58210    0.97210    0.56490    1.000
    C2       C        0.61760    0.88480    0.56760    1.000
    N9       N        0.58450    0.74430    0.50120    1.000
    C3       C        0.61870    0.82040    0.54970    1.000
    N10      N        0.48470    0.72390    0.47060    1.000
    C4       C        0.43030    0.77220    0.49040    1.000
    Cu6      Cu       0.54385    0.67689    0.46778    1.000
    H3       H        0.55920    0.00410    0.55810    1.000
    C5       C        0.62970    0.73010    0.52890    1.000
    N11      N        0.65300    0.77700    0.56020    1.000
    C6       C        0.44630    0.68740    0.46250    1.000
    H4       H        0.41400    0.80330    0.50110    1.000
    N12      N        0.60950    0.63290    0.49120    1.000
    N13      N        0.49740    0.60660    0.45100    1.000
    C7       C        0.64690    0.66810    0.52010    1.000
    C8       C        0.45290    0.62300    0.44810    1.000
    C9       C        0.61880    0.57400    0.48060    1.000
    N14      N        0.49450    0.54510    0.43770    1.000
    C10      C        0.69450    0.64840    0.53740    1.000
    C11      C        0.66610    0.55030    0.49950    1.000
    H5       H        0.59360    0.54890    0.46050    1.000
    H6       H        0.51790    0.52190    0.43620    1.000
    C12      C        0.44980    0.52800    0.42750    1.000
    H7       H        0.71970    0.67500    0.55560    1.000
    C13      C        0.70330    0.58810    0.52670    1.000
    H8       H        0.67210    0.50870    0.49350    1.000
    C14      C        0.42620    0.46850    0.41080    1.000
    H9       H        0.73500    0.57280    0.53800    1.000
    C15      C        0.44800    0.41290    0.40730    1.000
    C16      C        0.35110    0.42160    0.37540    1.000
    H10      H        0.48170    0.41160    0.41650    1.000
    C17      C        0.42280    0.36100    0.39130    1.000
    C18      C        0.37330    0.36540    0.37460    1.000
    H11      H        0.31740    0.42440    0.36230    1.000
    H12      H        0.43820    0.32280    0.39150    1.000
    H13      H        0.35450    0.32980    0.36250    1.000
    Na1      Na       0.52480    0.04040    0.20970    1.000
    O47      O        0.51440    0.03970    0.22860    1.000
    W16      W        0.90681    0.81118    0.23972    1.000
    O48      O        0.91440    0.75120    0.29030    1.000
    O49      O        0.85630    0.77020    0.19460    1.000
    O50      O        0.92630    0.85740    0.19230    1.000
    O51      O        0.97480    0.83960    0.29100    1.000
    O52      O        0.95930    0.74850    0.21740    1.000
    W17      W        0.95045    0.69145    0.33949    1.000
    W18      W        0.80673    0.70308    0.15929    1.000
    W19      W        0.96812    0.81901    0.16201    1.000
    O53      O        0.00240    0.75180    0.35920    1.000
    O54      O        0.99190    0.62490    0.37430    1.000
    O55      O        0.98100    0.66480    0.28280    1.000
    O56      O        0.90200    0.62960    0.30620    1.000
    O57      O        0.81240    0.73560    0.09930    1.000
    O58      O        0.77730    0.63050    0.13050    1.000
    O59      O        0.82950    0.66510    0.22290    1.000
    O60      O        0.87500    0.65970    0.14910    1.000
    O61      O        0.90550    0.77340    0.11820    1.000
    W20      W        0.04679    0.58320    0.41727    1.000
    W21      W        0.85004    0.58813    0.26033    1.000
    W22      W        0.86733    0.71316    0.08089    1.000
    W23      W        0.77720    0.53199    0.13231    1.000
    P3       P        0.89160    0.59090    0.16287    1.000
    O62      O        0.08260    0.66220    0.42270    1.000
    O63      O        0.01800    0.50550    0.39950    1.000
    O64      O        0.06310    0.57650    0.34980    1.000
    O65      O        0.10870    0.54630    0.44900    1.000
    O66      O        0.03320    0.59870    0.47150    1.000
    O67      O        0.89980    0.57990    0.21740    1.000
    O68      O        0.80560    0.54600    0.20020    1.000
    O69      O        0.87820    0.50880    0.28380    1.000
    O70      O        0.84850    0.74960    0.02220    1.000
    O71      O        0.82610    0.63380    0.04910    1.000
    O72      O        0.71510    0.53220    0.12360    1.000
    O73      O        0.76780    0.54010    0.06190    1.000
    O74      O        0.78730    0.44940    0.13550    1.000
    O75      O        0.84910    0.54850    0.12840    1.000
    W24      W        0.00980    0.41522    0.38786    1.000
    W25      W        0.17676    0.54902    0.45798    1.000
    Cu7      Cu       0.98153    0.64688    0.48804    1.000
    Cu8      Cu       0.77802    0.58501    0.36189    1.000
    W26      W        0.88647    0.42109    0.28817    1.000
    Cu9      Cu       0.84742    0.81636    0.97338    1.000
    Cu10     Cu       0.64840    0.56004    0.10103    1.000
    W27      W        0.81445    0.36181    0.16503    1.000
    O76      O        0.07770    0.40560    0.42200    1.000
    O77      O        0.03130    0.43900    0.32510    1.000
    O78      O        0.99270    0.40150    0.43950    1.000
    O79      O        0.00810    0.33200    0.36620    1.000
    O80      O        0.94750    0.43310    0.34150    1.000
    O81      O        0.16850    0.45610    0.44330    1.000
    O82      O        0.77710    0.49650    0.35570    1.000
    N15      N        0.84880    0.57740    0.40730    1.000
    O83      O        0.93090    0.43950    0.24210    1.000
    O84      O        0.83570    0.40810    0.22560    1.000
    O85      O        0.90620    0.33530    0.28300    1.000
    O86      O        0.66750    0.64420    0.09050    1.000
    N16      N        0.57850    0.57670    0.06660    1.000
    N17      N        0.62270    0.47190    0.10530    1.000
    O87      O        0.81090    0.34510    0.09830    1.000
    O88      O        0.85470    0.29760    0.19410    1.000
    O89      O        0.88110    0.40630    0.15440    1.000
    W28      W        0.14101    0.37889    0.42587    1.000
    P4       P        0.06700    0.40683    0.30451    1.000
    W29      W        0.04448    0.26602    0.34940    1.000
    Cu11     Cu       0.82973    0.44330    0.38938    1.000
    H14      H        0.74860    0.47790    0.33450    1.000
    N18      N        0.87120    0.51990    0.40950    1.000
    W30      W        0.91861    0.26596    0.24844    1.000
    H15      H        0.68520    0.66730    0.11860    1.000
    O90      O        0.09970    0.30090    0.39060    1.000
    O91      O        0.05230    0.33750    0.29210    1.000
    N19      N        0.07140    0.41240    0.54970    1.000
    N20      N        0.07570    0.30260    0.51340    1.000
    N21      N        0.97430    0.27880    0.48870    1.000
    O92      O        0.07200    0.22300    0.30700    1.000
    O93      O        0.97950    0.25340    0.29170    1.000
    N22      N        0.58840    0.71410    0.02540    1.000
    C19      C        0.08210    0.47210    0.56490    1.000
    C20      C        0.11760    0.38480    0.56760    1.000
    N23      N        0.08450    0.24430    0.50120    1.000
    C21      C        0.11870    0.32040    0.54970    1.000
    N24      N        0.98470    0.22390    0.47060    1.000
    C22      C        0.93030    0.27220    0.49040    1.000
    Cu12     Cu       0.04385    0.17689    0.46778    1.000
    H16      H        0.05920    0.50410    0.55810    1.000
    C23      C        0.12970    0.23010    0.52890    1.000
    N25      N        0.15300    0.27700    0.56020    1.000
    C24      C        0.94630    0.18740    0.46250    1.000
    H17      H        0.91400    0.30330    0.50110    1.000
    N26      N        0.10950    0.13290    0.49120    1.000
    N27      N        0.99740    0.10660    0.45100    1.000
    C25      C        0.14690    0.16810    0.52010    1.000
    C26      C        0.95290    0.12300    0.44810    1.000
    C27      C        0.11880    0.07400    0.48060    1.000
    N28      N        0.99450    0.04510    0.43770    1.000
    C28      C        0.19450    0.14840    0.53740    1.000
    C29      C        0.16610    0.05030    0.49950    1.000
    H18      H        0.09360    0.04890    0.46050    1.000
    H19      H        0.01790    0.02190    0.43620    1.000
    C30      C        0.94980    0.02800    0.42750    1.000
    H20      H        0.21970    0.17500    0.55560    1.000
    C31      C        0.20330    0.08810    0.52670    1.000
    H21      H        0.17210    0.00870    0.49350    1.000
    C32      C        0.92620    0.96850    0.41080    1.000
    H22      H        0.23500    0.07280    0.53800    1.000
    C33      C        0.94800    0.91290    0.40730    1.000
    C34      C        0.85110    0.92160    0.37540    1.000
    H23      H        0.98170    0.91160    0.41650    1.000
    C35      C        0.92280    0.86100    0.39130    1.000
    C36      C        0.87330    0.86540    0.37460    1.000
    H24      H        0.81740    0.92440    0.36230    1.000
    H25      H        0.93820    0.82280    0.39150    1.000
    H26      H        0.85450    0.82980    0.36250    1.000
    Na2      Na       0.02480    0.54040    0.20970    1.000
    O94      O        0.01440    0.53970    0.22860    1.000
    W31      W        0.59319    0.31118    0.26028    1.000
    O95      O        0.58560    0.25120    0.20970    1.000
    O96      O        0.64370    0.27020    0.30540    1.000
    O97      O        0.57370    0.35740    0.30770    1.000
    O98      O        0.52520    0.33960    0.20900    1.000
    O99      O        0.54070    0.24850    0.28260    1.000
    W32      W        0.54955    0.19145    0.16051    1.000
    W33      W        0.69327    0.20308    0.34071    1.000
    W34      W        0.53188    0.31901    0.33799    1.000
    O100     O        0.49760    0.25180    0.14080    1.000
    O101     O        0.50810    0.12490    0.12570    1.000
    O102     O        0.51900    0.16480    0.21720    1.000
    O103     O        0.59800    0.12960    0.19380    1.000
    O104     O        0.68760    0.23560    0.40070    1.000
    O105     O        0.72270    0.13050    0.36950    1.000
    O106     O        0.67050    0.16510    0.27710    1.000
    O107     O        0.62500    0.15970    0.35090    1.000
    O108     O        0.59450    0.27340    0.38180    1.000
    W35      W        0.45321    0.08320    0.08273    1.000
    W36      W        0.64996    0.08813    0.23967    1.000
    W37      W        0.63267    0.21316    0.41911    1.000
    W38      W        0.72280    0.03199    0.36769    1.000
    P5       P        0.60840    0.09090    0.33713    1.000
    O109     O        0.41740    0.16220    0.07730    1.000
    O110     O        0.48200    0.00550    0.10050    1.000
    O111     O        0.43690    0.07650    0.15020    1.000
    O112     O        0.39130    0.04630    0.05100    1.000
    O113     O        0.46680    0.09870    0.02850    1.000
    O114     O        0.60020    0.07990    0.28260    1.000
    O115     O        0.69440    0.04600    0.29980    1.000
    O116     O        0.62180    0.00880    0.21620    1.000
    O117     O        0.65150    0.24960    0.47780    1.000
    O118     O        0.67390    0.13380    0.45090    1.000
    O119     O        0.78490    0.03220    0.37640    1.000
    O120     O        0.73220    0.04010    0.43810    1.000
    O121     O        0.71270    0.94940    0.36450    1.000
    O122     O        0.65090    0.04850    0.37160    1.000
    W39      W        0.49020    0.91522    0.11214    1.000
    W40      W        0.32324    0.04902    0.04202    1.000
    Cu13     Cu       0.51847    0.14688    0.01196    1.000
    Cu14     Cu       0.72198    0.08501    0.13811    1.000
    W41      W        0.61353    0.92109    0.21183    1.000
    Cu15     Cu       0.65258    0.31636    0.52662    1.000
    Cu16     Cu       0.85160    0.06004    0.39897    1.000
    W42      W        0.68555    0.86181    0.33497    1.000
    O123     O        0.42230    0.90560    0.07800    1.000
    O124     O        0.46870    0.93900    0.17490    1.000
    O125     O        0.50730    0.90150    0.06050    1.000
    O126     O        0.49190    0.83200    0.13380    1.000
    O127     O        0.55250    0.93310    0.15850    1.000
    O128     O        0.33150    0.95610    0.05670    1.000
    O129     O        0.72290    0.99650    0.14430    1.000
    N29      N        0.65120    0.07740    0.09270    1.000
    O130     O        0.56910    0.93950    0.25790    1.000
    O131     O        0.66430    0.90810    0.27440    1.000
    O132     O        0.59380    0.83530    0.21700    1.000
    O133     O        0.83250    0.14420    0.40950    1.000
    N30      N        0.92150    0.07670    0.43340    1.000
    N31      N        0.87730    0.97190    0.39470    1.000
    O134     O        0.68910    0.84510    0.40170    1.000
    O135     O        0.64530    0.79760    0.30590    1.000
    O136     O        0.61890    0.90630    0.34560    1.000
    W43      W        0.35899    0.87889    0.07413    1.000
    P6       P        0.43300    0.90683    0.19549    1.000
    W44      W        0.45552    0.76602    0.15060    1.000
    Cu17     Cu       0.67027    0.94330    0.11062    1.000
    H27      H        0.75140    0.97790    0.16550    1.000
    N32      N        0.62880    0.01990    0.09050    1.000
    W45      W        0.58139    0.76596    0.25156    1.000
    H28      H        0.81480    0.16730    0.38140    1.000
    O137     O        0.40030    0.80090    0.10940    1.000
    O138     O        0.44770    0.83750    0.20790    1.000
    N33      N        0.42860    0.91240    0.95030    1.000
    N34      N        0.42430    0.80260    0.98660    1.000
    N35      N        0.52570    0.77880    0.01130    1.000
    O139     O        0.42800    0.72300    0.19300    1.000
    O140     O        0.52050    0.75340    0.20830    1.000
    N36      N        0.91160    0.21410    0.47460    1.000
    C37      C        0.41790    0.97210    0.93510    1.000
    C38      C        0.38240    0.88480    0.93240    1.000
    N37      N        0.41550    0.74430    0.99880    1.000
    C39      C        0.38130    0.82040    0.95030    1.000
    N38      N        0.51530    0.72390    0.02940    1.000
    C40      C        0.56970    0.77220    0.00960    1.000
    Cu18     Cu       0.45615    0.67689    0.03222    1.000
    H29      H        0.44080    0.00410    0.94190    1.000
    C41      C        0.37030    0.73010    0.97110    1.000
    N39      N        0.34700    0.77700    0.93980    1.000
    C42      C        0.55370    0.68740    0.03750    1.000
    H30      H        0.58600    0.80330    0.99890    1.000
    N40      N        0.39050    0.63290    0.00880    1.000
    N41      N        0.50260    0.60660    0.04900    1.000
    C43      C        0.35310    0.66810    0.97990    1.000
    C44      C        0.54710    0.62300    0.05190    1.000
    C45      C        0.38120    0.57400    0.01940    1.000
    N42      N        0.50550    0.54510    0.06230    1.000
    C46      C        0.30550    0.64840    0.96260    1.000
    C47      C        0.33390    0.55030    0.00050    1.000
    H31      H        0.40640    0.54890    0.03950    1.000
    H32      H        0.48210    0.52190    0.06380    1.000
    C48      C        0.55020    0.52800    0.07250    1.000
    H33      H        0.28030    0.67500    0.94440    1.000
    C49      C        0.29670    0.58810    0.97330    1.000
    H34      H        0.32790    0.50870    0.00650    1.000
    C50      C        0.57380    0.46850    0.08920    1.000
    H35      H        0.26500    0.57280    0.96200    1.000
    C51      C        0.55200    0.41290    0.09270    1.000
    C52      C        0.64890    0.42160    0.12460    1.000
    H36      H        0.51830    0.41160    0.08350    1.000
    C53      C        0.57720    0.36100    0.10870    1.000
    C54      C        0.62670    0.36540    0.12540    1.000
    H37      H        0.68260    0.42440    0.13770    1.000
    H38      H        0.56180    0.32280    0.10850    1.000
    H39      H        0.64550    0.32980    0.13750    1.000
    Na3      Na       0.47520    0.04040    0.29030    1.000
    O141     O        0.48560    0.03970    0.27140    1.000
    W46      W        0.09319    0.81118    0.26028    1.000
    O142     O        0.08560    0.75120    0.20970    1.000
    O143     O        0.14370    0.77020    0.30540    1.000
    O144     O        0.07370    0.85740    0.30770    1.000
    O145     O        0.02520    0.83960    0.20900    1.000
    O146     O        0.04070    0.74850    0.28260    1.000
    W47      W        0.04955    0.69145    0.16051    1.000
    W48      W        0.19327    0.70308    0.34071    1.000
    W49      W        0.03188    0.81901    0.33799    1.000
    O147     O        0.99760    0.75180    0.14080    1.000
    O148     O        0.00810    0.62490    0.12570    1.000
    O149     O        0.01900    0.66480    0.21720    1.000
    O150     O        0.09800    0.62960    0.19380    1.000
    O151     O        0.18760    0.73560    0.40070    1.000
    O152     O        0.22270    0.63050    0.36950    1.000
    O153     O        0.17050    0.66510    0.27710    1.000
    O154     O        0.12500    0.65970    0.35090    1.000
    O155     O        0.09450    0.77340    0.38180    1.000
    W50      W        0.95321    0.58320    0.08273    1.000
    W51      W        0.14996    0.58813    0.23967    1.000
    W52      W        0.13267    0.71316    0.41911    1.000
    W53      W        0.22280    0.53199    0.36769    1.000
    P7       P        0.10840    0.59090    0.33713    1.000
    O156     O        0.91740    0.66220    0.07730    1.000
    O157     O        0.98200    0.50550    0.10050    1.000
    O158     O        0.93690    0.57650    0.15020    1.000
    O159     O        0.89130    0.54630    0.05100    1.000
    O160     O        0.96680    0.59870    0.02850    1.000
    O161     O        0.10020    0.57990    0.28260    1.000
    O162     O        0.19440    0.54600    0.29980    1.000
    O163     O        0.12180    0.50880    0.21620    1.000
    O164     O        0.15150    0.74960    0.47780    1.000
    O165     O        0.17390    0.63380    0.45090    1.000
    O166     O        0.28490    0.53220    0.37640    1.000
    O167     O        0.23220    0.54010    0.43810    1.000
    O168     O        0.21270    0.44940    0.36450    1.000
    O169     O        0.15090    0.54850    0.37160    1.000
    W54      W        0.99020    0.41522    0.11214    1.000
    W55      W        0.82324    0.54902    0.04202    1.000
    Cu19     Cu       0.01847    0.64688    0.01196    1.000
    Cu20     Cu       0.22198    0.58501    0.13811    1.000
    W56      W        0.11353    0.42109    0.21183    1.000
    Cu21     Cu       0.15258    0.81636    0.52662    1.000
    Cu22     Cu       0.35160    0.56004    0.39897    1.000
    W57      W        0.18555    0.36181    0.33497    1.000
    O170     O        0.92230    0.40560    0.07800    1.000
    O171     O        0.96870    0.43900    0.17490    1.000
    O172     O        0.00730    0.40150    0.06050    1.000
    O173     O        0.99190    0.33200    0.13380    1.000
    O174     O        0.05250    0.43310    0.15850    1.000
    O175     O        0.83150    0.45610    0.05670    1.000
    O176     O        0.22290    0.49650    0.14430    1.000
    N43      N        0.15120    0.57740    0.09270    1.000
    O177     O        0.06910    0.43950    0.25790    1.000
    O178     O        0.16430    0.40810    0.27440    1.000
    O179     O        0.09380    0.33530    0.21700    1.000
    O180     O        0.33250    0.64420    0.40950    1.000
    N44      N        0.42150    0.57670    0.43340    1.000
    N45      N        0.37730    0.47190    0.39470    1.000
    O181     O        0.18910    0.34510    0.40170    1.000
    O182     O        0.14530    0.29760    0.30590    1.000
    O183     O        0.11890    0.40630    0.34560    1.000
    W58      W        0.85899    0.37889    0.07413    1.000
    P8       P        0.93300    0.40683    0.19549    1.000
    W59      W        0.95552    0.26602    0.15060    1.000
    Cu23     Cu       0.17027    0.44330    0.11062    1.000
    H40      H        0.25140    0.47790    0.16550    1.000
    N46      N        0.12880    0.51990    0.09050    1.000
    W60      W        0.08139    0.26596    0.25156    1.000
    H41      H        0.31480    0.66730    0.38140    1.000
    O184     O        0.90030    0.30090    0.10940    1.000
    O185     O        0.94770    0.33750    0.20790    1.000
    N47      N        0.92860    0.41240    0.95030    1.000
    N48      N        0.92430    0.30260    0.98660    1.000
    N49      N        0.02570    0.27880    0.01130    1.000
    O186     O        0.92800    0.22300    0.19300    1.000
    O187     O        0.02050    0.25340    0.20830    1.000
    N50      N        0.41160    0.71410    0.47460    1.000
    C55      C        0.91790    0.47210    0.93510    1.000
    C56      C        0.88240    0.38480    0.93240    1.000
    N51      N        0.91550    0.24430    0.99880    1.000
    C57      C        0.88130    0.32040    0.95030    1.000
    N52      N        0.01530    0.22390    0.02940    1.000
    C58      C        0.06970    0.27220    0.00960    1.000
    Cu24     Cu       0.95615    0.17689    0.03222    1.000
    H42      H        0.94080    0.50410    0.94190    1.000
    C59      C        0.87030    0.23010    0.97110    1.000
    N53      N        0.84700    0.27700    0.93980    1.000
    C60      C        0.05370    0.18740    0.03750    1.000
    H43      H        0.08600    0.30330    0.99890    1.000
    N54      N        0.89050    0.13290    0.00880    1.000
    N55      N        0.00260    0.10660    0.04900    1.000
    C61      C        0.85310    0.16810    0.97990    1.000
    C62      C        0.04710    0.12300    0.05190    1.000
    C63      C        0.88120    0.07400    0.01940    1.000
    N56      N        0.00550    0.04510    0.06230    1.000
    C64      C        0.80550    0.14840    0.96260    1.000
    C65      C        0.83390    0.05030    0.00050    1.000
    H44      H        0.90640    0.04890    0.03950    1.000
    H45      H        0.98210    0.02190    0.06380    1.000
    C66      C        0.05020    0.02800    0.07250    1.000
    H46      H        0.78030    0.17500    0.94440    1.000
    C67      C        0.79670    0.08810    0.97330    1.000
    H47      H        0.82790    0.00870    0.00650    1.000
    C68      C        0.07380    0.96850    0.08920    1.000
    H48      H        0.76500    0.07280    0.96200    1.000
    C69      C        0.05200    0.91290    0.09270    1.000
    C70      C        0.14890    0.92160    0.12460    1.000
    H49      H        0.01830    0.91160    0.08350    1.000
    C71      C        0.07720    0.86100    0.10870    1.000
    C72      C        0.12670    0.86540    0.12540    1.000
    H50      H        0.18260    0.92440    0.13770    1.000
    H51      H        0.06180    0.82280    0.10850    1.000
    H52      H        0.14550    0.82980    0.13750    1.000
    Na4      Na       0.97520    0.54040    0.29030    1.000
    O188     O        0.98560    0.53970    0.27140    1.000
    W61      W        0.59319    0.68882    0.76028    1.000
    O189     O        0.58560    0.74880    0.70970    1.000
    O190     O        0.64370    0.72980    0.80540    1.000
    O191     O        0.57370    0.64260    0.80770    1.000
    O192     O        0.52520    0.66040    0.70900    1.000
    O193     O        0.54070    0.75150    0.78260    1.000
    W62      W        0.54955    0.80855    0.66051    1.000
    W63      W        0.69327    0.79692    0.84071    1.000
    W64      W        0.53188    0.68099    0.83799    1.000
    O194     O        0.49760    0.74820    0.64080    1.000
    O195     O        0.50810    0.87510    0.62570    1.000
    O196     O        0.51900    0.83520    0.71720    1.000
    O197     O        0.59800    0.87040    0.69380    1.000
    O198     O        0.68760    0.76440    0.90070    1.000
    O199     O        0.72270    0.86950    0.86950    1.000
    O200     O        0.67050    0.83490    0.77710    1.000
    O201     O        0.62500    0.84030    0.85090    1.000
    O202     O        0.59450    0.72660    0.88180    1.000
    W65      W        0.45321    0.91680    0.58273    1.000
    W66      W        0.64996    0.91187    0.73967    1.000
    W67      W        0.63267    0.78684    0.91911    1.000
    W68      W        0.72280    0.96801    0.86769    1.000
    P9       P        0.60840    0.90910    0.83713    1.000
    O203     O        0.41740    0.83780    0.57730    1.000
    O204     O        0.48200    0.99450    0.60050    1.000
    O205     O        0.43690    0.92350    0.65020    1.000
    O206     O        0.39130    0.95370    0.55100    1.000
    O207     O        0.46680    0.90130    0.52850    1.000
    O208     O        0.60020    0.92010    0.78260    1.000
    O209     O        0.69440    0.95400    0.79980    1.000
    O210     O        0.62180    0.99120    0.71620    1.000
    O211     O        0.65150    0.75040    0.97780    1.000
    O212     O        0.67390    0.86620    0.95090    1.000
    O213     O        0.78490    0.96780    0.87640    1.000
    O214     O        0.73220    0.95990    0.93810    1.000
    O215     O        0.71270    0.05060    0.86450    1.000
    O216     O        0.65090    0.95150    0.87160    1.000
    W69      W        0.49020    0.08478    0.61214    1.000
    W70      W        0.32324    0.95098    0.54202    1.000
    Cu25     Cu       0.51847    0.85312    0.51196    1.000
    Cu26     Cu       0.72198    0.91499    0.63811    1.000
    W71      W        0.61353    0.07891    0.71183    1.000
    Cu27     Cu       0.65258    0.68364    0.02662    1.000
    Cu28     Cu       0.85160    0.93996    0.89897    1.000
    W72      W        0.68555    0.13819    0.83497    1.000
    O217     O        0.42230    0.09440    0.57800    1.000
    O218     O        0.46870    0.06100    0.67490    1.000
    O219     O        0.50730    0.09850    0.56050    1.000
    O220     O        0.49190    0.16800    0.63380    1.000
    O221     O        0.55250    0.06690    0.65850    1.000
    O222     O        0.33150    0.04390    0.55670    1.000
    O223     O        0.72290    0.00350    0.64430    1.000
    N57      N        0.65120    0.92260    0.59270    1.000
    O224     O        0.56910    0.06050    0.75790    1.000
    O225     O        0.66430    0.09190    0.77440    1.000
    O226     O        0.59380    0.16470    0.71700    1.000
    O227     O        0.83250    0.85580    0.90950    1.000
    N58      N        0.92150    0.92330    0.93340    1.000
    N59      N        0.87730    0.02810    0.89470    1.000
    O228     O        0.68910    0.15490    0.90170    1.000
    O229     O        0.64530    0.20240    0.80590    1.000
    O230     O        0.61890    0.09370    0.84560    1.000
    W73      W        0.35899    0.12111    0.57413    1.000
    P10      P        0.43300    0.09317    0.69549    1.000
    W74      W        0.45552    0.23398    0.65060    1.000
    Cu29     Cu       0.67027    0.05670    0.61062    1.000
    H53      H        0.75140    0.02210    0.66550    1.000
    N60      N        0.62880    0.98010    0.59050    1.000
    W75      W        0.58139    0.23404    0.75156    1.000
    H54      H        0.81480    0.83270    0.88140    1.000
    O231     O        0.40030    0.19910    0.60940    1.000
    O232     O        0.44770    0.16250    0.70790    1.000
    N61      N        0.42860    0.08760    0.45030    1.000
    N62      N        0.42430    0.19740    0.48660    1.000
    N63      N        0.52570    0.22120    0.51130    1.000
    O233     O        0.42800    0.27700    0.69300    1.000
    O234     O        0.52050    0.24660    0.70830    1.000
    N64      N        0.91160    0.78590    0.97460    1.000
    C73      C        0.41790    0.02790    0.43510    1.000
    C74      C        0.38240    0.11520    0.43240    1.000
    N65      N        0.41550    0.25570    0.49880    1.000
    C75      C        0.38130    0.17960    0.45030    1.000
    N66      N        0.51530    0.27610    0.52940    1.000
    C76      C        0.56970    0.22780    0.50960    1.000
    Cu30     Cu       0.45615    0.32311    0.53222    1.000
    H55      H        0.44080    0.99590    0.44190    1.000
    C77      C        0.37030    0.26990    0.47110    1.000
    N67      N        0.34700    0.22300    0.43980    1.000
    C78      C        0.55370    0.31260    0.53750    1.000
    H56      H        0.58600    0.19670    0.49890    1.000
    N68      N        0.39050    0.36710    0.50880    1.000
    N69      N        0.50260    0.39340    0.54900    1.000
    C79      C        0.35310    0.33190    0.47990    1.000
    C80      C        0.54710    0.37700    0.55190    1.000
    C81      C        0.38120    0.42600    0.51940    1.000
    N70      N        0.50550    0.45490    0.56230    1.000
    C82      C        0.30550    0.35160    0.46260    1.000
    C83      C        0.33390    0.44970    0.50050    1.000
    H57      H        0.40640    0.45110    0.53950    1.000
    H58      H        0.48210    0.47810    0.56380    1.000
    C84      C        0.55020    0.47200    0.57250    1.000
    H59      H        0.28030    0.32500    0.44440    1.000
    C85      C        0.29670    0.41190    0.47330    1.000
    H60      H        0.32790    0.49130    0.50650    1.000
    C86      C        0.57380    0.53150    0.58920    1.000
    H61      H        0.26500    0.42720    0.46200    1.000
    C87      C        0.55200    0.58710    0.59270    1.000
    C88      C        0.64890    0.57840    0.62460    1.000
    H62      H        0.51830    0.58840    0.58350    1.000
    C89      C        0.57720    0.63900    0.60870    1.000
    C90      C        0.62670    0.63460    0.62540    1.000
    H63      H        0.68260    0.57560    0.63770    1.000
    H64      H        0.56180    0.67720    0.60850    1.000
    H65      H        0.64550    0.67020    0.63750    1.000
    Na5      Na       0.47520    0.95960    0.79030    1.000
    O235     O        0.48560    0.96030    0.77140    1.000
    W76      W        0.09319    0.18882    0.76028    1.000
    O236     O        0.08560    0.24880    0.70970    1.000
    O237     O        0.14370    0.22980    0.80540    1.000
    O238     O        0.07370    0.14260    0.80770    1.000
    O239     O        0.02520    0.16040    0.70900    1.000
    O240     O        0.04070    0.25150    0.78260    1.000
    W77      W        0.04955    0.30855    0.66051    1.000
    W78      W        0.19327    0.29692    0.84071    1.000
    W79      W        0.03188    0.18099    0.83799    1.000
    O241     O        0.99760    0.24820    0.64080    1.000
    O242     O        0.00810    0.37510    0.62570    1.000
    O243     O        0.01900    0.33520    0.71720    1.000
    O244     O        0.09800    0.37040    0.69380    1.000
    O245     O        0.18760    0.26440    0.90070    1.000
    O246     O        0.22270    0.36950    0.86950    1.000
    O247     O        0.17050    0.33490    0.77710    1.000
    O248     O        0.12500    0.34030    0.85090    1.000
    O249     O        0.09450    0.22660    0.88180    1.000
    W80      W        0.95321    0.41680    0.58273    1.000
    W81      W        0.14996    0.41187    0.73967    1.000
    W82      W        0.13267    0.28684    0.91911    1.000
    W83      W        0.22280    0.46801    0.86769    1.000
    P11      P        0.10840    0.40910    0.83713    1.000
    O250     O        0.91740    0.33780    0.57730    1.000
    O251     O        0.98200    0.49450    0.60050    1.000
    O252     O        0.93690    0.42350    0.65020    1.000
    O253     O        0.89130    0.45370    0.55100    1.000
    O254     O        0.96680    0.40130    0.52850    1.000
    O255     O        0.10020    0.42010    0.78260    1.000
    O256     O        0.19440    0.45400    0.79980    1.000
    O257     O        0.12180    0.49120    0.71620    1.000
    O258     O        0.15150    0.25040    0.97780    1.000
    O259     O        0.17390    0.36620    0.95090    1.000
    O260     O        0.28490    0.46780    0.87640    1.000
    O261     O        0.23220    0.45990    0.93810    1.000
    O262     O        0.21270    0.55060    0.86450    1.000
    O263     O        0.15090    0.45150    0.87160    1.000
    W84      W        0.99020    0.58478    0.61214    1.000
    W85      W        0.82324    0.45098    0.54202    1.000
    Cu31     Cu       0.01847    0.35312    0.51196    1.000
    Cu32     Cu       0.22198    0.41499    0.63811    1.000
    W86      W        0.11353    0.57891    0.71183    1.000
    Cu33     Cu       0.15258    0.18364    0.02662    1.000
    Cu34     Cu       0.35160    0.43996    0.89897    1.000
    W87      W        0.18555    0.63819    0.83497    1.000
    O264     O        0.92230    0.59440    0.57800    1.000
    O265     O        0.96870    0.56100    0.67490    1.000
    O266     O        0.00730    0.59850    0.56050    1.000
    O267     O        0.99190    0.66800    0.63380    1.000
    O268     O        0.05250    0.56690    0.65850    1.000
    O269     O        0.83150    0.54390    0.55670    1.000
    O270     O        0.22290    0.50350    0.64430    1.000
    N71      N        0.15120    0.42260    0.59270    1.000
    O271     O        0.06910    0.56050    0.75790    1.000
    O272     O        0.16430    0.59190    0.77440    1.000
    O273     O        0.09380    0.66470    0.71700    1.000
    O274     O        0.33250    0.35580    0.90950    1.000
    N72      N        0.42150    0.42330    0.93340    1.000
    N73      N        0.37730    0.52810    0.89470    1.000
    O275     O        0.18910    0.65490    0.90170    1.000
    O276     O        0.14530    0.70240    0.80590    1.000
    O277     O        0.11890    0.59370    0.84560    1.000
    W88      W        0.85899    0.62111    0.57413    1.000
    P12      P        0.93300    0.59317    0.69549    1.000
    W89      W        0.95552    0.73398    0.65060    1.000
    Cu35     Cu       0.17027    0.55670    0.61062    1.000
    H66      H        0.25140    0.52210    0.66550    1.000
    N74      N        0.12880    0.48010    0.59050    1.000
    W90      W        0.08139    0.73404    0.75156    1.000
    H67      H        0.31480    0.33270    0.88140    1.000
    O278     O        0.90030    0.69910    0.60940    1.000
    O279     O        0.94770    0.66250    0.70790    1.000
    N75      N        0.92860    0.58760    0.45030    1.000
    N76      N        0.92430    0.69740    0.48660    1.000
    N77      N        0.02570    0.72120    0.51130    1.000
    O280     O        0.92800    0.77700    0.69300    1.000
    O281     O        0.02050    0.74660    0.70830    1.000
    N78      N        0.41160    0.28590    0.97460    1.000
    C91      C        0.91790    0.52790    0.43510    1.000
    C92      C        0.88240    0.61520    0.43240    1.000
    N79      N        0.91550    0.75570    0.49880    1.000
    C93      C        0.88130    0.67960    0.45030    1.000
    N80      N        0.01530    0.77610    0.52940    1.000
    C94      C        0.06970    0.72780    0.50960    1.000
    Cu36     Cu       0.95615    0.82311    0.53222    1.000
    H68      H        0.94080    0.49590    0.44190    1.000
    C95      C        0.87030    0.76990    0.47110    1.000
    N81      N        0.84700    0.72300    0.43980    1.000
    C96      C        0.05370    0.81260    0.53750    1.000
    H69      H        0.08600    0.69670    0.49890    1.000
    N82      N        0.89050    0.86710    0.50880    1.000
    N83      N        0.00260    0.89340    0.54900    1.000
    C97      C        0.85310    0.83190    0.47990    1.000
    C98      C        0.04710    0.87700    0.55190    1.000
    C99      C        0.88120    0.92600    0.51940    1.000
    N84      N        0.00550    0.95490    0.56230    1.000
    C100     C        0.80550    0.85160    0.46260    1.000
    C101     C        0.83390    0.94970    0.50050    1.000
    H70      H        0.90640    0.95110    0.53950    1.000
    H71      H        0.98210    0.97810    0.56380    1.000
    C102     C        0.05020    0.97200    0.57250    1.000
    H72      H        0.78030    0.82500    0.44440    1.000
    C103     C        0.79670    0.91190    0.47330    1.000
    H73      H        0.82790    0.99130    0.50650    1.000
    C104     C        0.07380    0.03150    0.58920    1.000
    H74      H        0.76500    0.92720    0.46200    1.000
    C105     C        0.05200    0.08710    0.59270    1.000
    C106     C        0.14890    0.07840    0.62460    1.000
    H75      H        0.01830    0.08840    0.58350    1.000
    C107     C        0.07720    0.13900    0.60870    1.000
    C108     C        0.12670    0.13460    0.62540    1.000
    H76      H        0.18260    0.07560    0.63770    1.000
    H77      H        0.06180    0.17720    0.60850    1.000
    H78      H        0.14550    0.17020    0.63750    1.000
    Na6      Na       0.97520    0.45960    0.79030    1.000
    O282     O        0.98560    0.46030    0.77140    1.000
    W91      W        0.40681    0.68882    0.73972    1.000
    O283     O        0.41440    0.74880    0.79030    1.000
    O284     O        0.35630    0.72980    0.69460    1.000
    O285     O        0.42630    0.64260    0.69230    1.000
    O286     O        0.47480    0.66040    0.79100    1.000
    O287     O        0.45930    0.75150    0.71740    1.000
    W92      W        0.45045    0.80855    0.83949    1.000
    W93      W        0.30673    0.79692    0.65929    1.000
    W94      W        0.46812    0.68099    0.66201    1.000
    O288     O        0.50240    0.74820    0.85920    1.000
    O289     O        0.49190    0.87510    0.87430    1.000
    O290     O        0.48100    0.83520    0.78280    1.000
    O291     O        0.40200    0.87040    0.80620    1.000
    O292     O        0.31240    0.76440    0.59930    1.000
    O293     O        0.27730    0.86950    0.63050    1.000
    O294     O        0.32950    0.83490    0.72290    1.000
    O295     O        0.37500    0.84030    0.64910    1.000
    O296     O        0.40550    0.72660    0.61820    1.000
    W95      W        0.54679    0.91680    0.91727    1.000
    W96      W        0.35004    0.91187    0.76033    1.000
    W97      W        0.36733    0.78684    0.58089    1.000
    W98      W        0.27720    0.96801    0.63231    1.000
    P13      P        0.39160    0.90910    0.66287    1.000
    O297     O        0.58260    0.83780    0.92270    1.000
    O298     O        0.51800    0.99450    0.89950    1.000
    O299     O        0.56310    0.92350    0.84980    1.000
    O300     O        0.60870    0.95370    0.94900    1.000
    O301     O        0.53320    0.90130    0.97150    1.000
    O302     O        0.39980    0.92010    0.71740    1.000
    O303     O        0.30560    0.95400    0.70020    1.000
    O304     O        0.37820    0.99120    0.78380    1.000
    O305     O        0.34850    0.75040    0.52220    1.000
    O306     O        0.32610    0.86620    0.54910    1.000
    O307     O        0.21510    0.96780    0.62360    1.000
    O308     O        0.26780    0.95990    0.56190    1.000
    O309     O        0.28730    0.05060    0.63550    1.000
    O310     O        0.34910    0.95150    0.62840    1.000
    W99      W        0.50980    0.08478    0.88786    1.000
    W100     W        0.67676    0.95098    0.95798    1.000
    Cu37     Cu       0.48153    0.85312    0.98804    1.000
    Cu38     Cu       0.27802    0.91499    0.86189    1.000
    W101     W        0.38647    0.07891    0.78817    1.000
    Cu39     Cu       0.34742    0.68364    0.47338    1.000
    Cu40     Cu       0.14840    0.93996    0.60103    1.000
    W102     W        0.31445    0.13819    0.66503    1.000
    O311     O        0.57770    0.09440    0.92200    1.000
    O312     O        0.53130    0.06100    0.82510    1.000
    O313     O        0.49270    0.09850    0.93950    1.000
    O314     O        0.50810    0.16800    0.86620    1.000
    O315     O        0.44750    0.06690    0.84150    1.000
    O316     O        0.66850    0.04390    0.94330    1.000
    O317     O        0.27710    0.00350    0.85570    1.000
    N85      N        0.34880    0.92260    0.90730    1.000
    O318     O        0.43090    0.06050    0.74210    1.000
    O319     O        0.33570    0.09190    0.72560    1.000
    O320     O        0.40620    0.16470    0.78300    1.000
    O321     O        0.16750    0.85580    0.59050    1.000
    N86      N        0.07850    0.92330    0.56660    1.000
    N87      N        0.12270    0.02810    0.60530    1.000
    O322     O        0.31090    0.15490    0.59830    1.000
    O323     O        0.35470    0.20240    0.69410    1.000
    O324     O        0.38110    0.09370    0.65440    1.000
    W103     W        0.64101    0.12111    0.92587    1.000
    P14      P        0.56700    0.09317    0.80451    1.000
    W104     W        0.54448    0.23398    0.84940    1.000
    Cu41     Cu       0.32973    0.05670    0.88938    1.000
    H79      H        0.24860    0.02210    0.83450    1.000
    N88      N        0.37120    0.98010    0.90950    1.000
    W105     W        0.41861    0.23404    0.74844    1.000
    H80      H        0.18520    0.83270    0.61860    1.000
    O325     O        0.59970    0.19910    0.89060    1.000
    O326     O        0.55230    0.16250    0.79210    1.000
    N89      N        0.57140    0.08760    0.04970    1.000
    N90      N        0.57570    0.19740    0.01340    1.000
    N91      N        0.47430    0.22120    0.98870    1.000
    O327     O        0.57200    0.27700    0.80700    1.000
    O328     O        0.47950    0.24660    0.79170    1.000
    N92      N        0.08840    0.78590    0.52540    1.000
    C109     C        0.58210    0.02790    0.06490    1.000
    C110     C        0.61760    0.11520    0.06760    1.000
    N93      N        0.58450    0.25570    0.00120    1.000
    C111     C        0.61870    0.17960    0.04970    1.000
    N94      N        0.48470    0.27610    0.97060    1.000
    C112     C        0.43030    0.22780    0.99040    1.000
    Cu42     Cu       0.54385    0.32311    0.96778    1.000
    H81      H        0.55920    0.99590    0.05810    1.000
    C113     C        0.62970    0.26990    0.02890    1.000
    N95      N        0.65300    0.22300    0.06020    1.000
    C114     C        0.44630    0.31260    0.96250    1.000
    H82      H        0.41400    0.19670    0.00110    1.000
    N96      N        0.60950    0.36710    0.99120    1.000
    N97      N        0.49740    0.39340    0.95100    1.000
    C115     C        0.64690    0.33190    0.02010    1.000
    C116     C        0.45290    0.37700    0.94810    1.000
    C117     C        0.61880    0.42600    0.98060    1.000
    N98      N        0.49450    0.45490    0.93770    1.000
    C118     C        0.69450    0.35160    0.03740    1.000
    C119     C        0.66610    0.44970    0.99950    1.000
    H83      H        0.59360    0.45110    0.96050    1.000
    H84      H        0.51790    0.47810    0.93620    1.000
    C120     C        0.44980    0.47200    0.92750    1.000
    H85      H        0.71970    0.32500    0.05560    1.000
    C121     C        0.70330    0.41190    0.02670    1.000
    H86      H        0.67210    0.49130    0.99350    1.000
    C122     C        0.42620    0.53150    0.91080    1.000
    H87      H        0.73500    0.42720    0.03800    1.000
    C123     C        0.44800    0.58710    0.90730    1.000
    C124     C        0.35110    0.57840    0.87540    1.000
    H88      H        0.48170    0.58840    0.91650    1.000
    C125     C        0.42280    0.63900    0.89130    1.000
    C126     C        0.37330    0.63460    0.87460    1.000
    H89      H        0.31740    0.57560    0.86230    1.000
    H90      H        0.43820    0.67720    0.89150    1.000
    H91      H        0.35450    0.67020    0.86250    1.000
    Na7      Na       0.52480    0.95960    0.70970    1.000
    O329     O        0.51440    0.96030    0.72860    1.000
    W106     W        0.90681    0.18882    0.73972    1.000
    O330     O        0.91440    0.24880    0.79030    1.000
    O331     O        0.85630    0.22980    0.69460    1.000
    O332     O        0.92630    0.14260    0.69230    1.000
    O333     O        0.97480    0.16040    0.79100    1.000
    O334     O        0.95930    0.25150    0.71740    1.000
    W107     W        0.95045    0.30855    0.83949    1.000
    W108     W        0.80673    0.29692    0.65929    1.000
    W109     W        0.96812    0.18099    0.66201    1.000
    O335     O        0.00240    0.24820    0.85920    1.000
    O336     O        0.99190    0.37510    0.87430    1.000
    O337     O        0.98100    0.33520    0.78280    1.000
    O338     O        0.90200    0.37040    0.80620    1.000
    O339     O        0.81240    0.26440    0.59930    1.000
    O340     O        0.77730    0.36950    0.63050    1.000
    O341     O        0.82950    0.33490    0.72290    1.000
    O342     O        0.87500    0.34030    0.64910    1.000
    O343     O        0.90550    0.22660    0.61820    1.000
    W110     W        0.04679    0.41680    0.91727    1.000
    W111     W        0.85004    0.41187    0.76033    1.000
    W112     W        0.86733    0.28684    0.58089    1.000
    W113     W        0.77720    0.46801    0.63231    1.000
    P15      P        0.89160    0.40910    0.66287    1.000
    O344     O        0.08260    0.33780    0.92270    1.000
    O345     O        0.01800    0.49450    0.89950    1.000
    O346     O        0.06310    0.42350    0.84980    1.000
    O347     O        0.10870    0.45370    0.94900    1.000
    O348     O        0.03320    0.40130    0.97150    1.000
    O349     O        0.89980    0.42010    0.71740    1.000
    O350     O        0.80560    0.45400    0.70020    1.000
    O351     O        0.87820    0.49120    0.78380    1.000
    O352     O        0.84850    0.25040    0.52220    1.000
    O353     O        0.82610    0.36620    0.54910    1.000
    O354     O        0.71510    0.46780    0.62360    1.000
    O355     O        0.76780    0.45990    0.56190    1.000
    O356     O        0.78730    0.55060    0.63550    1.000
    O357     O        0.84910    0.45150    0.62840    1.000
    W114     W        0.00980    0.58478    0.88786    1.000
    W115     W        0.17676    0.45098    0.95798    1.000
    Cu43     Cu       0.98153    0.35312    0.98804    1.000
    Cu44     Cu       0.77802    0.41499    0.86189    1.000
    W116     W        0.88647    0.57891    0.78817    1.000
    Cu45     Cu       0.84742    0.18364    0.47338    1.000
    Cu46     Cu       0.64840    0.43996    0.60103    1.000
    W117     W        0.81445    0.63819    0.66503    1.000
    O358     O        0.07770    0.59440    0.92200    1.000
    O359     O        0.03130    0.56100    0.82510    1.000
    O360     O        0.99270    0.59850    0.93950    1.000
    O361     O        0.00810    0.66800    0.86620    1.000
    O362     O        0.94750    0.56690    0.84150    1.000
    O363     O        0.16850    0.54390    0.94330    1.000
    O364     O        0.77710    0.50350    0.85570    1.000
    N99      N        0.84880    0.42260    0.90730    1.000
    O365     O        0.93090    0.56050    0.74210    1.000
    O366     O        0.83570    0.59190    0.72560    1.000
    O367     O        0.90620    0.66470    0.78300    1.000
    O368     O        0.66750    0.35580    0.59050    1.000
    N100     N        0.57850    0.42330    0.56660    1.000
    N101     N        0.62270    0.52810    0.60530    1.000
    O369     O        0.81090    0.65490    0.59830    1.000
    O370     O        0.85470    0.70240    0.69410    1.000
    O371     O        0.88110    0.59370    0.65440    1.000
    W118     W        0.14101    0.62111    0.92587    1.000
    P16      P        0.06700    0.59317    0.80451    1.000
    W119     W        0.04448    0.73398    0.84940    1.000
    Cu47     Cu       0.82973    0.55670    0.88938    1.000
    H92      H        0.74860    0.52210    0.83450    1.000
    N102     N        0.87120    0.48010    0.90950    1.000
    W120     W        0.91861    0.73404    0.74844    1.000
    H93      H        0.68520    0.33270    0.61860    1.000
    O372     O        0.09970    0.69910    0.89060    1.000
    O373     O        0.05230    0.66250    0.79210    1.000
    N103     N        0.07140    0.58760    0.04970    1.000
    N104     N        0.07570    0.69740    0.01340    1.000
    N105     N        0.97430    0.72120    0.98870    1.000
    O374     O        0.07200    0.77700    0.80700    1.000
    O375     O        0.97950    0.74660    0.79170    1.000
    N106     N        0.58840    0.28590    0.52540    1.000
    C127     C        0.08210    0.52790    0.06490    1.000
    C128     C        0.11760    0.61520    0.06760    1.000
    N107     N        0.08450    0.75570    0.00120    1.000
    C129     C        0.11870    0.67960    0.04970    1.000
    N108     N        0.98470    0.77610    0.97060    1.000
    C130     C        0.93030    0.72780    0.99040    1.000
    Cu48     Cu       0.04385    0.82311    0.96778    1.000
    H94      H        0.05920    0.49590    0.05810    1.000
    C131     C        0.12970    0.76990    0.02890    1.000
    N109     N        0.15300    0.72300    0.06020    1.000
    C132     C        0.94630    0.81260    0.96250    1.000
    H95      H        0.91400    0.69670    0.00110    1.000
    N110     N        0.10950    0.86710    0.99120    1.000
    N111     N        0.99740    0.89340    0.95100    1.000
    C133     C        0.14690    0.83190    0.02010    1.000
    C134     C        0.95290    0.87700    0.94810    1.000
    C135     C        0.11880    0.92600    0.98060    1.000
    N112     N        0.99450    0.95490    0.93770    1.000
    C136     C        0.19450    0.85160    0.03740    1.000
    C137     C        0.16610    0.94970    0.99950    1.000
    H96      H        0.09360    0.95110    0.96050    1.000
    H97      H        0.01790    0.97810    0.93620    1.000
    C138     C        0.94980    0.97200    0.92750    1.000
    H98      H        0.21970    0.82500    0.05560    1.000
    C139     C        0.20330    0.91190    0.02670    1.000
    H99      H        0.17210    0.99130    0.99350    1.000
    C140     C        0.92620    0.03150    0.91080    1.000
    H100     H        0.23500    0.92720    0.03800    1.000
    C141     C        0.94800    0.08710    0.90730    1.000
    C142     C        0.85110    0.07840    0.87540    1.000
    H101     H        0.98170    0.08840    0.91650    1.000
    C143     C        0.92280    0.13900    0.89130    1.000
    C144     C        0.87330    0.13460    0.87460    1.000
    H102     H        0.81740    0.07560    0.86230    1.000
    H103     H        0.93820    0.17720    0.89150    1.000
    H104     H        0.85450    0.17020    0.86250    1.000
    Na8      Na       0.02480    0.45960    0.70970    1.000
    O376     O        0.01440    0.46030    0.72860    1.000
    P17      P        0.50000    0.20530    0.25000    1.000
    P18      P        0.00000    0.70530    0.25000    1.000
    P19      P        0.50000    0.79470    0.75000    1.000
    P20      P        0.00000    0.29470    0.75000    1.000
