# CIF file generated by openbabel 3.1.0, see https://openbabel.org
data_I
_chemical_name_common 'image0'
_cell_length_a 17.996
_cell_length_b 17.996
_cell_length_c 17.996
_cell_angle_alpha 90
_cell_angle_beta 90
_cell_angle_gamma 90
_space_group_name_H-M_alt 'P 1'
_space_group_name_Hall 'P 1'
loop_
    _symmetry_equiv_pos_as_xyz
    x,y,z
loop_
    _atom_site_label
    _atom_site_type_symbol
    _atom_site_fract_x
    _atom_site_fract_y
    _atom_site_fract_z
    _atom_site_occupancy
    C1       C        0.24919    0.55749    0.94459    1.000
    C2       C        0.18915    0.59228    0.90749    1.000
    C3       C        0.28168    0.58996    0.00771    1.000
    C4       C        0.19539    0.69272    0.99869    1.000
    C5       C        0.15818    0.65812    0.93860    1.000
    C6       C        0.25845    0.66006    0.03109    1.000
    O1       O        0.29891    0.69599    0.08687    1.000
    O2       O        0.33737    0.55382    0.04811    1.000
    H1       H        0.27186    0.50229    0.92332    1.000
    H2       H        0.17424    0.74792    0.02147    1.000
    C7       C        0.25081    0.44251    0.44459    1.000
    C8       C        0.31085    0.40772    0.40749    1.000
    C9       C        0.21832    0.41004    0.50771    1.000
    C10      C        0.30461    0.30728    0.49869    1.000
    C11      C        0.34182    0.34188    0.43860    1.000
    C12      C        0.24155    0.33994    0.53109    1.000
    O3       O        0.20109    0.30401    0.58687    1.000
    O4       O        0.16263    0.44618    0.54811    1.000
    H3       H        0.22814    0.49771    0.42332    1.000
    H4       H        0.32576    0.25208    0.52147    1.000
    C13      C        0.75081    0.05749    0.55541    1.000
    C14      C        0.81085    0.09228    0.59251    1.000
    C15      C        0.71832    0.08996    0.49229    1.000
    C16      C        0.80461    0.19272    0.50131    1.000
    C17      C        0.84182    0.15812    0.56140    1.000
    C18      C        0.74155    0.16006    0.46891    1.000
    O5       O        0.70109    0.19599    0.41313    1.000
    O6       O        0.66263    0.05382    0.45189    1.000
    H5       H        0.72814    0.00229    0.57668    1.000
    H6       H        0.82576    0.24792    0.47853    1.000
    C19      C        0.74919    0.94251    0.05541    1.000
    C20      C        0.68915    0.90772    0.09251    1.000
    C21      C        0.78168    0.91004    0.99229    1.000
    C22      C        0.69539    0.80728    0.00131    1.000
    C23      C        0.65818    0.84188    0.06140    1.000
    C24      C        0.75845    0.83994    0.96891    1.000
    O7       O        0.79891    0.80401    0.91313    1.000
    O8       O        0.83737    0.94618    0.95189    1.000
    H7       H        0.77186    0.99771    0.07668    1.000
    H8       H        0.67424    0.75208    0.97853    1.000
    C25      C        0.94459    0.24919    0.55749    1.000
    C26      C        0.90749    0.18915    0.59228    1.000
    C27      C        0.00771    0.28168    0.58996    1.000
    C28      C        0.99869    0.19539    0.69272    1.000
    C29      C        0.93860    0.15818    0.65812    1.000
    C30      C        0.03109    0.25845    0.66006    1.000
    O9       O        0.08687    0.29891    0.69599    1.000
    O10      O        0.04811    0.33737    0.55382    1.000
    H9       H        0.92332    0.27186    0.50229    1.000
    H10      H        0.02147    0.17424    0.74792    1.000
    C31      C        0.44459    0.25081    0.44251    1.000
    C32      C        0.40749    0.31085    0.40772    1.000
    C33      C        0.50771    0.21832    0.41004    1.000
    C34      C        0.49869    0.30461    0.30728    1.000
    C35      C        0.43860    0.34182    0.34188    1.000
    C36      C        0.53109    0.24155    0.33994    1.000
    O11      O        0.58687    0.20109    0.30401    1.000
    O12      O        0.54811    0.16263    0.44618    1.000
    H11      H        0.42332    0.22814    0.49771    1.000
    H12      H        0.52147    0.32576    0.25208    1.000
    C37      C        0.55541    0.75081    0.05749    1.000
    C38      C        0.59251    0.81085    0.09228    1.000
    C39      C        0.49229    0.71832    0.08996    1.000
    C40      C        0.50131    0.80461    0.19272    1.000
    C41      C        0.56140    0.84182    0.15812    1.000
    C42      C        0.46891    0.74155    0.16006    1.000
    O13      O        0.41313    0.70109    0.19599    1.000
    O14      O        0.45189    0.66263    0.05382    1.000
    H13      H        0.57668    0.72814    0.00229    1.000
    H14      H        0.47853    0.82576    0.24792    1.000
    C43      C        0.05541    0.74919    0.94251    1.000
    C44      C        0.09251    0.68915    0.90772    1.000
    C45      C        0.99229    0.78168    0.91004    1.000
    C46      C        0.00131    0.69539    0.80728    1.000
    C47      C        0.06140    0.65818    0.84188    1.000
    C48      C        0.96891    0.75845    0.83994    1.000
    O15      O        0.91313    0.79891    0.80401    1.000
    O16      O        0.95189    0.83737    0.94618    1.000
    H15      H        0.07668    0.77186    0.99771    1.000
    H16      H        0.97853    0.67424    0.75208    1.000
    C49      C        0.55749    0.94459    0.24919    1.000
    C50      C        0.59228    0.90749    0.18915    1.000
    C51      C        0.58996    0.00771    0.28168    1.000
    C52      C        0.69272    0.99869    0.19539    1.000
    C53      C        0.65812    0.93860    0.15818    1.000
    C54      C        0.66006    0.03109    0.25845    1.000
    O17      O        0.69599    0.08687    0.29891    1.000
    O18      O        0.55382    0.04811    0.33737    1.000
    H17      H        0.50229    0.92332    0.27186    1.000
    H18      H        0.74792    0.02147    0.17424    1.000
    C55      C        0.44251    0.44459    0.25081    1.000
    C56      C        0.40772    0.40749    0.31085    1.000
    C57      C        0.41004    0.50771    0.21832    1.000
    C58      C        0.30728    0.49869    0.30461    1.000
    C59      C        0.34188    0.43860    0.34182    1.000
    C60      C        0.33994    0.53109    0.24155    1.000
    O19      O        0.30401    0.58687    0.20109    1.000
    O20      O        0.44618    0.54811    0.16263    1.000
    H19      H        0.49771    0.42332    0.22814    1.000
    H20      H        0.25208    0.52147    0.32576    1.000
    C61      C        0.05749    0.55541    0.75081    1.000
    C62      C        0.09228    0.59251    0.81085    1.000
    C63      C        0.08996    0.49229    0.71832    1.000
    C64      C        0.19272    0.50131    0.80461    1.000
    C65      C        0.15812    0.56140    0.84182    1.000
    C66      C        0.16006    0.46891    0.74155    1.000
    O21      O        0.19599    0.41313    0.70109    1.000
    O22      O        0.05382    0.45189    0.66263    1.000
    H21      H        0.00229    0.57668    0.72814    1.000
    H22      H        0.24792    0.47853    0.82576    1.000
    C67      C        0.94251    0.05541    0.74919    1.000
    C68      C        0.90772    0.09251    0.68915    1.000
    C69      C        0.91004    0.99229    0.78168    1.000
    C70      C        0.80728    0.00131    0.69539    1.000
    C71      C        0.84188    0.06140    0.65818    1.000
    C72      C        0.83994    0.96891    0.75845    1.000
    O23      O        0.80401    0.91313    0.79891    1.000
    O24      O        0.94618    0.95189    0.83737    1.000
    H23      H        0.99771    0.07668    0.77186    1.000
    H24      H        0.75208    0.97853    0.67424    1.000
    Ti1      Ti       0.37525    0.62475    0.12475    1.000
    Ti2      Ti       0.12475    0.37525    0.62475    1.000
    Ti3      Ti       0.62475    0.12475    0.37525    1.000
    Ti4      Ti       0.87525    0.87525    0.87525    1.000
    C73      C        0.75084    0.44253    0.05537    1.000
    C74      C        0.81088    0.40775    0.09247    1.000
    C75      C        0.71835    0.41005    0.99225    1.000
    C76      C        0.80465    0.30729    0.00129    1.000
    C77      C        0.84185    0.34191    0.06136    1.000
    C78      C        0.74158    0.33994    0.96889    1.000
    O25      O        0.70112    0.30401    0.91311    1.000
    O26      O        0.66265    0.44618    0.95186    1.000
    H25      H        0.72816    0.49773    0.07664    1.000
    H26      H        0.82581    0.25210    0.97851    1.000
    C79      C        0.74916    0.55747    0.55537    1.000
    C80      C        0.68912    0.59225    0.59247    1.000
    C81      C        0.78165    0.58995    0.49225    1.000
    C82      C        0.69535    0.69271    0.50129    1.000
    C83      C        0.65815    0.65809    0.56136    1.000
    C84      C        0.75842    0.66006    0.46889    1.000
    O27      O        0.79888    0.69599    0.41311    1.000
    O28      O        0.83735    0.55382    0.45186    1.000
    H27      H        0.77184    0.50227    0.57664    1.000
    H28      H        0.67419    0.74790    0.47851    1.000
    C85      C        0.24916    0.94253    0.44463    1.000
    C86      C        0.18912    0.90775    0.40753    1.000
    C87      C        0.28165    0.91005    0.50775    1.000
    C88      C        0.19535    0.80729    0.49871    1.000
    C89      C        0.15815    0.84191    0.43864    1.000
    C90      C        0.25842    0.83994    0.53111    1.000
    O29      O        0.29888    0.80401    0.58689    1.000
    O30      O        0.33735    0.94618    0.54814    1.000
    H29      H        0.27184    0.99773    0.42336    1.000
    H30      H        0.17419    0.75210    0.52149    1.000
    C91      C        0.25084    0.05747    0.94463    1.000
    C92      C        0.31088    0.09225    0.90753    1.000
    C93      C        0.21835    0.08995    0.00775    1.000
    C94      C        0.30465    0.19271    0.99871    1.000
    C95      C        0.34185    0.15809    0.93864    1.000
    C96      C        0.24158    0.16006    0.03111    1.000
    O31      O        0.20112    0.19599    0.08689    1.000
    O32      O        0.16265    0.05382    0.04814    1.000
    H31      H        0.22816    0.00227    0.92336    1.000
    H32      H        0.32581    0.24790    0.02149    1.000
    C97      C        0.05537    0.75084    0.44253    1.000
    C98      C        0.09247    0.81088    0.40775    1.000
    C99      C        0.99225    0.71835    0.41005    1.000
    C100     C        0.00129    0.80465    0.30729    1.000
    C101     C        0.06136    0.84185    0.34191    1.000
    C102     C        0.96889    0.74158    0.33994    1.000
    O33      O        0.91311    0.70112    0.30401    1.000
    O34      O        0.95186    0.66265    0.44618    1.000
    H33      H        0.07664    0.72816    0.49773    1.000
    H34      H        0.97851    0.82581    0.25210    1.000
    C103     C        0.55537    0.74916    0.55747    1.000
    C104     C        0.59247    0.68912    0.59225    1.000
    C105     C        0.49225    0.78165    0.58995    1.000
    C106     C        0.50129    0.69535    0.69271    1.000
    C107     C        0.56136    0.65815    0.65809    1.000
    C108     C        0.46889    0.75842    0.66006    1.000
    O35      O        0.41311    0.79888    0.69599    1.000
    O36      O        0.45186    0.83735    0.55382    1.000
    H35      H        0.57664    0.77184    0.50227    1.000
    H36      H        0.47851    0.67419    0.74790    1.000
    C109     C        0.44463    0.24916    0.94253    1.000
    C110     C        0.40753    0.18912    0.90775    1.000
    C111     C        0.50775    0.28165    0.91005    1.000
    C112     C        0.49871    0.19535    0.80729    1.000
    C113     C        0.43864    0.15815    0.84191    1.000
    C114     C        0.53111    0.25842    0.83994    1.000
    O37      O        0.58689    0.29888    0.80401    1.000
    O38      O        0.54814    0.33735    0.94618    1.000
    H37      H        0.42336    0.27184    0.99773    1.000
    H38      H        0.52149    0.17419    0.75210    1.000
    C115     C        0.94463    0.25084    0.05747    1.000
    C116     C        0.90753    0.31088    0.09225    1.000
    C117     C        0.00775    0.21835    0.08995    1.000
    C118     C        0.99871    0.30465    0.19271    1.000
    C119     C        0.93864    0.34185    0.15809    1.000
    C120     C        0.03111    0.24158    0.16006    1.000
    O39      O        0.08689    0.20112    0.19599    1.000
    O40      O        0.04814    0.16265    0.05382    1.000
    H39      H        0.92336    0.22816    0.00227    1.000
    H40      H        0.02149    0.32581    0.24790    1.000
    C121     C        0.44253    0.05537    0.75084    1.000
    C122     C        0.40775    0.09247    0.81088    1.000
    C123     C        0.41005    0.99225    0.71835    1.000
    C124     C        0.30729    0.00129    0.80465    1.000
    C125     C        0.34191    0.06136    0.84185    1.000
    C126     C        0.33994    0.96889    0.74158    1.000
    O41      O        0.30401    0.91311    0.70112    1.000
    O42      O        0.44618    0.95186    0.66265    1.000
    H41      H        0.49773    0.07664    0.72816    1.000
    H42      H        0.25210    0.97851    0.82581    1.000
    C127     C        0.55747    0.55537    0.74916    1.000
    C128     C        0.59225    0.59247    0.68912    1.000
    C129     C        0.58995    0.49225    0.78165    1.000
    C130     C        0.69271    0.50129    0.69535    1.000
    C131     C        0.65809    0.56136    0.65815    1.000
    C132     C        0.66006    0.46889    0.75842    1.000
    O43      O        0.69599    0.41311    0.79888    1.000
    O44      O        0.55382    0.45186    0.83735    1.000
    H43      H        0.50227    0.57664    0.77184    1.000
    H44      H        0.74790    0.47851    0.67419    1.000
    C133     C        0.94253    0.44463    0.24916    1.000
    C134     C        0.90775    0.40753    0.18912    1.000
    C135     C        0.91005    0.50775    0.28165    1.000
    C136     C        0.80729    0.49871    0.19535    1.000
    C137     C        0.84191    0.43864    0.15815    1.000
    C138     C        0.83994    0.53111    0.25842    1.000
    O45      O        0.80401    0.58689    0.29888    1.000
    O46      O        0.94618    0.54814    0.33735    1.000
    H45      H        0.99773    0.42336    0.27184    1.000
    H46      H        0.75210    0.52149    0.17419    1.000
    C139     C        0.05747    0.94463    0.25084    1.000
    C140     C        0.09225    0.90753    0.31088    1.000
    C141     C        0.08995    0.00775    0.21835    1.000
    C142     C        0.19271    0.99871    0.30465    1.000
    C143     C        0.15809    0.93864    0.34185    1.000
    C144     C        0.16006    0.03111    0.24158    1.000
    O47      O        0.19599    0.08689    0.20112    1.000
    O48      O        0.05382    0.04814    0.16265    1.000
    H47      H        0.00227    0.92336    0.22816    1.000
    H48      H        0.24790    0.02149    0.32581    1.000
    Ti5      Ti       0.62477    0.37523    0.87523    1.000
    Ti6      Ti       0.87523    0.62477    0.37523    1.000
    Ti7      Ti       0.37523    0.87523    0.62477    1.000
    Ti8      Ti       0.12477    0.12477    0.12477    1.000
