# CIF file generated by openbabel 3.1.0, see https://openbabel.org
data_I
_chemical_name_common 'image0'
_cell_length_a 36.84
_cell_length_b 7.0063
_cell_length_c 6.1988
_cell_angle_alpha 90
_cell_angle_beta 97.45
_cell_angle_gamma 90
_space_group_name_H-M_alt 'P 1'
_space_group_name_Hall 'P 1'
loop_
    _symmetry_equiv_pos_as_xyz
    x,y,z
loop_
    _atom_site_label
    _atom_site_type_symbol
    _atom_site_fract_x
    _atom_site_fract_y
    _atom_site_fract_z
    _atom_site_occupancy
    O1       O        0.34670    0.44100    0.51200    1.000
    O2       O        0.20050    0.19020    0.21140    1.000
    O3       O        0.22410    0.34690    0.62060    1.000
    C1       C        0.44970    0.43200    0.30200    1.000
    H1       H        0.47010    0.37000    0.39000    1.000
    C2       C        0.41510    0.42400    0.36900    1.000
    H2       H        0.41120    0.35000    0.49300    1.000
    C3       C        0.38800    0.54200    0.01800    1.000
    C4       C        0.42310    0.55200    0.95600    1.000
    H3       H        0.42540    0.58000    0.80600    1.000
    C5       C        0.17331    0.42110    0.96910    1.000
    C6       C        0.13980    0.41010    0.05100    1.000
    H4       H        0.13870    0.35810    0.19270    1.000
    C7       C        0.10800    0.47510    0.92630    1.000
    H5       H        0.08500    0.46770    0.98250    1.000
    C8       C        0.10960    0.55110    0.71980    1.000
    H6       H        0.08780    0.59570    0.63430    1.000
    C9       C        0.14310    0.56200    0.63780    1.000
    H7       H        0.14410    0.61230    0.49520    1.000
    C10      C        0.20630    0.36100    0.12570    1.000
    O4       O        0.84670    0.94100    0.51200    1.000
    O5       O        0.70050    0.69020    0.21140    1.000
    O6       O        0.72410    0.84690    0.62060    1.000
    C11      C        0.94970    0.93200    0.30200    1.000
    H8       H        0.97010    0.87000    0.39000    1.000
    C12      C        0.91510    0.92400    0.36900    1.000
    H9       H        0.91120    0.85000    0.49300    1.000
    C13      C        0.88800    0.04200    0.01800    1.000
    C14      C        0.92310    0.05200    0.95600    1.000
    H10      H        0.92540    0.08000    0.80600    1.000
    C15      C        0.67331    0.92110    0.96910    1.000
    C16      C        0.63980    0.91010    0.05100    1.000
    H11      H        0.63870    0.85810    0.19270    1.000
    C17      C        0.60800    0.97510    0.92630    1.000
    H12      H        0.58500    0.96770    0.98250    1.000
    C18      C        0.60960    0.05110    0.71980    1.000
    H13      H        0.58780    0.09570    0.63430    1.000
    C19      C        0.64310    0.06200    0.63780    1.000
    H14      H        0.64410    0.11230    0.49520    1.000
    C20      C        0.70630    0.86100    0.12570    1.000
    O7       O        0.65330    0.44100    0.48800    1.000
    O8       O        0.79950    0.19020    0.78860    1.000
    O9       O        0.77590    0.34690    0.37940    1.000
    C21      C        0.55030    0.43200    0.69800    1.000
    H15      H        0.52990    0.37000    0.61000    1.000
    C22      C        0.58490    0.42400    0.63100    1.000
    H16      H        0.58880    0.35000    0.50700    1.000
    C23      C        0.61200    0.54200    0.98200    1.000
    C24      C        0.57690    0.55200    0.04400    1.000
    H17      H        0.57460    0.58000    0.19400    1.000
    C25      C        0.82669    0.42110    0.03090    1.000
    C26      C        0.86020    0.41010    0.94900    1.000
    H18      H        0.86130    0.35810    0.80730    1.000
    C27      C        0.89200    0.47510    0.07370    1.000
    H19      H        0.91500    0.46770    0.01750    1.000
    C28      C        0.89040    0.55110    0.28020    1.000
    H20      H        0.91220    0.59570    0.36570    1.000
    C29      C        0.85690    0.56200    0.36220    1.000
    H21      H        0.85590    0.61230    0.50480    1.000
    C30      C        0.79370    0.36100    0.87430    1.000
    O10      O        0.15330    0.94100    0.48800    1.000
    O11      O        0.29950    0.69020    0.78860    1.000
    O12      O        0.27590    0.84690    0.37940    1.000
    C31      C        0.05030    0.93200    0.69800    1.000
    H22      H        0.02990    0.87000    0.61000    1.000
    C32      C        0.08490    0.92400    0.63100    1.000
    H23      H        0.08880    0.85000    0.50700    1.000
    C33      C        0.11200    0.04200    0.98200    1.000
    C34      C        0.07690    0.05200    0.04400    1.000
    H24      H        0.07460    0.08000    0.19400    1.000
    C35      C        0.32669    0.92110    0.03090    1.000
    C36      C        0.36020    0.91010    0.94900    1.000
    H25      H        0.36130    0.85810    0.80730    1.000
    C37      C        0.39200    0.97510    0.07370    1.000
    H26      H        0.41500    0.96770    0.01750    1.000
    C38      C        0.39040    0.05110    0.28020    1.000
    H27      H        0.41220    0.09570    0.36570    1.000
    C39      C        0.35690    0.06200    0.36220    1.000
    H28      H        0.35590    0.11230    0.50480    1.000
    C40      C        0.29370    0.86100    0.87430    1.000
    O13      O        0.65330    0.55900    0.48800    1.000
    O14      O        0.79950    0.80980    0.78860    1.000
    O15      O        0.77590    0.65310    0.37940    1.000
    C41      C        0.55030    0.56800    0.69800    1.000
    H29      H        0.52990    0.63000    0.61000    1.000
    C42      C        0.58490    0.57600    0.63100    1.000
    H30      H        0.58880    0.65000    0.50700    1.000
    C43      C        0.61200    0.45800    0.98200    1.000
    C44      C        0.57690    0.44800    0.04400    1.000
    H31      H        0.57460    0.42000    0.19400    1.000
    C45      C        0.82669    0.57890    0.03090    1.000
    C46      C        0.86020    0.58990    0.94900    1.000
    H32      H        0.86130    0.64190    0.80730    1.000
    C47      C        0.89200    0.52490    0.07370    1.000
    H33      H        0.91500    0.53230    0.01750    1.000
    C48      C        0.89040    0.44890    0.28020    1.000
    H34      H        0.91220    0.40430    0.36570    1.000
    C49      C        0.85690    0.43800    0.36220    1.000
    H35      H        0.85590    0.38770    0.50480    1.000
    C50      C        0.79370    0.63900    0.87430    1.000
    O16      O        0.15330    0.05900    0.48800    1.000
    O17      O        0.29950    0.30980    0.78860    1.000
    O18      O        0.27590    0.15310    0.37940    1.000
    C51      C        0.05030    0.06800    0.69800    1.000
    H36      H        0.02990    0.13000    0.61000    1.000
    C52      C        0.08490    0.07600    0.63100    1.000
    H37      H        0.08880    0.15000    0.50700    1.000
    C53      C        0.11200    0.95800    0.98200    1.000
    C54      C        0.07690    0.94800    0.04400    1.000
    H38      H        0.07460    0.92000    0.19400    1.000
    C55      C        0.32669    0.07890    0.03090    1.000
    C56      C        0.36020    0.08990    0.94900    1.000
    H39      H        0.36130    0.14190    0.80730    1.000
    C57      C        0.39200    0.02490    0.07370    1.000
    H40      H        0.41500    0.03230    0.01750    1.000
    C58      C        0.39040    0.94890    0.28020    1.000
    H41      H        0.41220    0.90430    0.36570    1.000
    C59      C        0.35690    0.93800    0.36220    1.000
    H42      H        0.35590    0.88770    0.50480    1.000
    C60      C        0.29370    0.13900    0.87430    1.000
    O19      O        0.34670    0.55900    0.51200    1.000
    O20      O        0.20050    0.80980    0.21140    1.000
    O21      O        0.22410    0.65310    0.62060    1.000
    C61      C        0.44970    0.56800    0.30200    1.000
    H43      H        0.47010    0.63000    0.39000    1.000
    C62      C        0.41510    0.57600    0.36900    1.000
    H44      H        0.41120    0.65000    0.49300    1.000
    C63      C        0.38800    0.45800    0.01800    1.000
    C64      C        0.42310    0.44800    0.95600    1.000
    H45      H        0.42540    0.42000    0.80600    1.000
    C65      C        0.17331    0.57890    0.96910    1.000
    C66      C        0.13980    0.58990    0.05100    1.000
    H46      H        0.13870    0.64190    0.19270    1.000
    C67      C        0.10800    0.52490    0.92630    1.000
    H47      H        0.08500    0.53230    0.98250    1.000
    C68      C        0.10960    0.44890    0.71980    1.000
    H48      H        0.08780    0.40430    0.63430    1.000
    C69      C        0.14310    0.43800    0.63780    1.000
    H49      H        0.14410    0.38770    0.49520    1.000
    C70      C        0.20630    0.63900    0.12570    1.000
    O22      O        0.84670    0.05900    0.51200    1.000
    O23      O        0.70050    0.30980    0.21140    1.000
    O24      O        0.72410    0.15310    0.62060    1.000
    C71      C        0.94970    0.06800    0.30200    1.000
    H50      H        0.97010    0.13000    0.39000    1.000
    C72      C        0.91510    0.07600    0.36900    1.000
    H51      H        0.91120    0.15000    0.49300    1.000
    C73      C        0.88800    0.95800    0.01800    1.000
    C74      C        0.92310    0.94800    0.95600    1.000
    H52      H        0.92540    0.92000    0.80600    1.000
    C75      C        0.67331    0.07890    0.96910    1.000
    C76      C        0.63980    0.08990    0.05100    1.000
    H53      H        0.63870    0.14190    0.19270    1.000
    C77      C        0.60800    0.02490    0.92630    1.000
    H54      H        0.58500    0.03230    0.98250    1.000
    C78      C        0.60960    0.94890    0.71980    1.000
    H55      H        0.58780    0.90430    0.63430    1.000
    C79      C        0.64310    0.93800    0.63780    1.000
    H56      H        0.64410    0.88770    0.49520    1.000
    C80      C        0.70630    0.13900    0.12570    1.000
    Sm1      Sm       0.28005    0.50000    0.47849    1.000
    O25      O        0.31920    0.50000    0.19180    1.000
    O26      O        0.23270    0.50000    0.16630    1.000
    N1       N        0.45390    0.50000    0.09700    1.000
    C81      C        0.38520    0.50000    0.23600    1.000
    H57      H        0.36820    0.50000    0.90900    1.000
    C82      C        0.34860    0.50000    0.31700    1.000
    C83      C        0.17491    0.50000    0.76250    1.000
    C84      C        0.20940    0.50000    0.66470    1.000
    Sm2      Sm       0.78005    0.00000    0.47849    1.000
    O27      O        0.81920    0.00000    0.19180    1.000
    O28      O        0.73270    0.00000    0.16630    1.000
    N2       N        0.95390    0.00000    0.09700    1.000
    C85      C        0.88520    0.00000    0.23600    1.000
    H58      H        0.86820    0.00000    0.90900    1.000
    C86      C        0.84860    0.00000    0.31700    1.000
    C87      C        0.67491    0.00000    0.76250    1.000
    C88      C        0.70940    0.00000    0.66470    1.000
    Sm3      Sm       0.71995    0.50000    0.52151    1.000
    O29      O        0.68080    0.50000    0.80820    1.000
    O30      O        0.76730    0.50000    0.83370    1.000
    N3       N        0.54610    0.50000    0.90300    1.000
    C89      C        0.61480    0.50000    0.76400    1.000
    H59      H        0.63180    0.50000    0.09100    1.000
    C90      C        0.65140    0.50000    0.68300    1.000
    C91      C        0.82509    0.50000    0.23750    1.000
    C92      C        0.79060    0.50000    0.33530    1.000
    Sm4      Sm       0.21995    0.00000    0.52151    1.000
    O31      O        0.18080    0.00000    0.80820    1.000
    O32      O        0.26730    0.00000    0.83370    1.000
    N4       N        0.04610    0.00000    0.90300    1.000
    C93      C        0.11480    0.00000    0.76400    1.000
    H60      H        0.13180    0.00000    0.09100    1.000
    C94      C        0.15140    0.00000    0.68300    1.000
    C95      C        0.32509    0.00000    0.23750    1.000
    C96      C        0.29060    0.00000    0.33530    1.000
    Cu1      Cu       0.50000    0.50000    0.00000    1.000
    Cu2      Cu       0.00000    0.00000    0.00000    1.000
