# CIF file generated by openbabel 3.1.0, see https://openbabel.org
data_I
_chemical_name_common 'NOCLUN_clean'
_cell_length_a 6.897
_cell_length_b 12.1864
_cell_length_c 18.516
_cell_angle_alpha 90
_cell_angle_beta 90
_cell_angle_gamma 90
_space_group_name_H-M_alt 'P 1'
_space_group_name_Hall 'P 1'
loop_
    _symmetry_equiv_pos_as_xyz
    x,y,z
loop_
    _atom_site_label
    _atom_site_type_symbol
    _atom_site_fract_x
    _atom_site_fract_y
    _atom_site_fract_z
    _atom_site_occupancy
    Sr1      Sr       0.25000    0.08464    0.51764    1.000
    Sr2      Sr       0.75000    0.41536    0.01764    1.000
    Sr3      Sr       0.75000    0.91536    0.48236    1.000
    Sr4      Sr       0.25000    0.58464    0.98236    1.000
    H1       H        0.95730    0.83790    0.32570    1.000
    H2       H        0.95810    0.75680    0.21190    1.000
    H3       H        0.04270    0.66210    0.82570    1.000
    H4       H        0.04190    0.74320    0.71190    1.000
    H5       H        0.45730    0.16210    0.67430    1.000
    H6       H        0.45810    0.24320    0.78810    1.000
    H7       H        0.54270    0.33790    0.17430    1.000
    H8       H        0.54190    0.25680    0.28810    1.000
    H9       H        0.04270    0.16210    0.67430    1.000
    H10      H        0.04190    0.24320    0.78810    1.000
    H11      H        0.95730    0.33790    0.17430    1.000
    H12      H        0.95810    0.25680    0.28810    1.000
    H13      H        0.54270    0.83790    0.32570    1.000
    H14      H        0.54190    0.75680    0.21190    1.000
    H15      H        0.45730    0.66210    0.82570    1.000
    H16      H        0.45810    0.74320    0.71190    1.000
    C1       C        0.07710    0.82120    0.30280    1.000
    C2       C        0.07780    0.77310    0.23490    1.000
    C3       C        0.92290    0.67880    0.80280    1.000
    C4       C        0.92220    0.72690    0.73490    1.000
    C5       C        0.57710    0.17880    0.69720    1.000
    C6       C        0.57780    0.22690    0.76510    1.000
    C7       C        0.42290    0.32120    0.19720    1.000
    C8       C        0.42220    0.27310    0.26510    1.000
    C9       C        0.92290    0.17880    0.69720    1.000
    C10      C        0.92220    0.22690    0.76510    1.000
    C11      C        0.07710    0.32120    0.19720    1.000
    C12      C        0.07780    0.27310    0.26510    1.000
    C13      C        0.42290    0.82120    0.30280    1.000
    C14      C        0.42220    0.77310    0.23490    1.000
    C15      C        0.57710    0.67880    0.80280    1.000
    C16      C        0.57780    0.72690    0.73490    1.000
    C17      C        0.25000    0.89920    0.41070    1.000
    C18      C        0.25000    0.84510    0.33750    1.000
    C19      C        0.25000    0.69940    0.12560    1.000
    C20      C        0.25000    0.74850    0.20000    1.000
    C21      C        0.75000    0.60080    0.91070    1.000
    C22      C        0.75000    0.65490    0.83750    1.000
    C23      C        0.75000    0.80060    0.62560    1.000
    C24      C        0.75000    0.75150    0.70000    1.000
    C25      C        0.75000    0.10080    0.58930    1.000
    C26      C        0.75000    0.15490    0.66250    1.000
    C27      C        0.75000    0.30060    0.87440    1.000
    C28      C        0.75000    0.25150    0.80000    1.000
    C29      C        0.25000    0.39920    0.08930    1.000
    C30      C        0.25000    0.34510    0.16250    1.000
    C31      C        0.25000    0.19940    0.37440    1.000
    C32      C        0.25000    0.24850    0.30000    1.000
    O1       O        0.09060    0.92340    0.43946    1.000
    O2       O        0.09040    0.68030    0.09550    1.000
    O3       O        0.90940    0.57660    0.93946    1.000
    O4       O        0.90960    0.81970    0.59550    1.000
    O5       O        0.59060    0.07660    0.56054    1.000
    O6       O        0.59040    0.31970    0.90450    1.000
    O7       O        0.40940    0.42340    0.06054    1.000
    O8       O        0.40960    0.18030    0.40450    1.000
    O9       O        0.90940    0.07660    0.56054    1.000
    O10      O        0.90960    0.31970    0.90450    1.000
    O11      O        0.09060    0.42340    0.06054    1.000
    O12      O        0.09040    0.18030    0.40450    1.000
    O13      O        0.40940    0.92340    0.43946    1.000
    O14      O        0.40960    0.68030    0.09550    1.000
    O15      O        0.59060    0.57660    0.93946    1.000
    O16      O        0.59040    0.81970    0.59550    1.000
