# CIF file generated by openbabel 3.1.0, see https://openbabel.org
data_I
_chemical_name_common 'DAWBIO_clean'
_cell_length_a 6.62
_cell_length_b 26.282
_cell_length_c 7.667
_cell_angle_alpha 90
_cell_angle_beta 90
_cell_angle_gamma 90
_space_group_name_H-M_alt 'P 1'
_space_group_name_Hall 'P 1'
loop_
    _symmetry_equiv_pos_as_xyz
    x,y,z
loop_
    _atom_site_label
    _atom_site_type_symbol
    _atom_site_fract_x
    _atom_site_fract_y
    _atom_site_fract_z
    _atom_site_occupancy
    Co1      Co       0.98584    0.28336    0.25071    1.000
    Co2      Co       0.01416    0.71664    0.25071    1.000
    Co3      Co       0.48584    0.21664    0.74929    1.000
    Co4      Co       0.51416    0.78336    0.74929    1.000
    H1       H        0.97240    0.14830    0.41170    1.000
    H2       H        0.08290    0.13510    0.13520    1.000
    H3       H        0.27520    0.14210    0.25100    1.000
    H4       H        0.96660    0.39490    0.38290    1.000
    H5       H        0.16260    0.46720    0.40000    1.000
    H6       H        0.61860    0.38900    0.18340    1.000
    H7       H        0.40390    0.32020    0.16620    1.000
    H8       H        0.02760    0.85170    0.41170    1.000
    H9       H        0.91710    0.86490    0.13520    1.000
    H10      H        0.72480    0.85790    0.25100    1.000
    H11      H        0.03340    0.60510    0.38290    1.000
    H12      H        0.83740    0.53280    0.40000    1.000
    H13      H        0.38140    0.61100    0.18340    1.000
    H14      H        0.59610    0.67980    0.16620    1.000
    H15      H        0.47240    0.35170    0.58830    1.000
    H16      H        0.58290    0.36490    0.86480    1.000
    H17      H        0.77520    0.35790    0.74900    1.000
    H18      H        0.46660    0.10510    0.61710    1.000
    H19      H        0.66260    0.03280    0.60000    1.000
    H20      H        0.11860    0.11100    0.81660    1.000
    H21      H        0.90390    0.17980    0.83380    1.000
    H22      H        0.52760    0.64830    0.58830    1.000
    H23      H        0.41710    0.63510    0.86480    1.000
    H24      H        0.22480    0.64210    0.74900    1.000
    H25      H        0.53340    0.89490    0.61710    1.000
    H26      H        0.33740    0.96720    0.60000    1.000
    H27      H        0.88140    0.88900    0.81660    1.000
    H28      H        0.09610    0.82020    0.83380    1.000
    C1       C        0.14990    0.20840    0.48360    1.000
    C2       C        0.02780    0.17820    0.35230    1.000
    C3       C        0.15960    0.15970    0.20220    1.000
    C4       C        0.23700    0.20060    0.07740    1.000
    C5       C        0.09770    0.39400    0.33940    1.000
    C6       C        0.21430    0.43770    0.35010    1.000
    C7       C        0.40830    0.43650    0.28510    1.000
    C8       C        0.48530    0.39160    0.22060    1.000
    C9       C        0.35420    0.35030    0.21380    1.000
    C10      C        0.85010    0.79160    0.48360    1.000
    C11      C        0.97220    0.82180    0.35230    1.000
    C12      C        0.84040    0.84030    0.20220    1.000
    C13      C        0.76300    0.79940    0.07740    1.000
    C14      C        0.90230    0.60600    0.33940    1.000
    C15      C        0.78570    0.56230    0.35010    1.000
    C16      C        0.59170    0.56350    0.28510    1.000
    C17      C        0.51470    0.60840    0.22060    1.000
    C18      C        0.64580    0.64970    0.21380    1.000
    C19      C        0.64990    0.29160    0.51640    1.000
    C20      C        0.52780    0.32180    0.64770    1.000
    C21      C        0.65960    0.34030    0.79780    1.000
    C22      C        0.73700    0.29940    0.92260    1.000
    C23      C        0.59770    0.10600    0.66060    1.000
    C24      C        0.71430    0.06230    0.64990    1.000
    C25      C        0.90830    0.06350    0.71490    1.000
    C26      C        0.98530    0.10840    0.77940    1.000
    C27      C        0.85420    0.14970    0.78620    1.000
    C28      C        0.35010    0.70840    0.51640    1.000
    C29      C        0.47220    0.67820    0.64770    1.000
    C30      C        0.34040    0.65970    0.79780    1.000
    C31      C        0.26300    0.70060    0.92260    1.000
    C32      C        0.40230    0.89400    0.66060    1.000
    C33      C        0.28570    0.93770    0.64990    1.000
    C34      C        0.09170    0.93650    0.71490    1.000
    C35      C        0.01470    0.89160    0.77940    1.000
    C36      C        0.14580    0.85030    0.78620    1.000
    N1       N        0.16550    0.35000    0.26900    1.000
    N2       N        0.54210    0.47920    0.28710    1.000
    N3       N        0.83450    0.65000    0.26900    1.000
    N4       N        0.45790    0.52080    0.28710    1.000
    N5       N        0.66550    0.15000    0.73100    1.000
    N6       N        0.04210    0.02080    0.71290    1.000
    N7       N        0.33450    0.85000    0.73100    1.000
    N8       N        0.95790    0.97920    0.71290    1.000
    O1       O        0.12600    0.25641    0.47980    1.000
    O2       O        0.86180    0.20657    0.27930    1.000
    O3       O        0.20380    0.24696    0.10100    1.000
    O4       O        0.34100    0.18336    0.95370    1.000
    O5       O        0.26730    0.18460    0.57950    1.000
    O6       O        0.87400    0.74359    0.47980    1.000
    O7       O        0.13820    0.79343    0.27930    1.000
    O8       O        0.79620    0.75304    0.10100    1.000
    O9       O        0.65900    0.81664    0.95370    1.000
    O10      O        0.73270    0.81540    0.57950    1.000
    O11      O        0.62600    0.24359    0.52020    1.000
    O12      O        0.36180    0.29343    0.72070    1.000
    O13      O        0.70380    0.25304    0.89900    1.000
    O14      O        0.84100    0.31664    0.04630    1.000
    O15      O        0.76730    0.31540    0.42050    1.000
    O16      O        0.37400    0.75641    0.52020    1.000
    O17      O        0.63820    0.70657    0.72070    1.000
    O18      O        0.29620    0.74696    0.89900    1.000
    O19      O        0.15900    0.68336    0.04630    1.000
    O20      O        0.23270    0.68460    0.42050    1.000
