# CIF file generated by openbabel 3.1.0, see https://openbabel.org
data_I
_chemical_name_common 'image0'
_cell_length_a 7.9973
_cell_length_b 9.7743
_cell_length_c 10.8627
_cell_angle_alpha 87.194
_cell_angle_beta 84.679
_cell_angle_gamma 74.744
_space_group_name_H-M_alt 'P 1'
_space_group_name_Hall 'P 1'
loop_
    _symmetry_equiv_pos_as_xyz
    x,y,z
loop_
    _atom_site_label
    _atom_site_type_symbol
    _atom_site_fract_x
    _atom_site_fract_y
    _atom_site_fract_z
    _atom_site_occupancy
    Cu1      Cu       0.87713    0.92944    0.01304    1.000
    C1       C        0.01440    0.98760    0.62790    1.000
    C2       C        0.11630    0.88200    0.54990    1.000
    C3       C        0.89960    0.10380    0.57730    1.000
    C4       C        0.02090    0.98400    0.76660    1.000
    C5       C        0.24860    0.75490    0.59720    1.000
    C6       C        0.37520    0.63080    0.00860    1.000
    C7       C        0.54870    0.62190    0.02810    1.000
    C8       C        0.32860    0.50860    0.98180    1.000
    C9       C        0.23770    0.77010    0.01030    1.000
    C10      C        0.60840    0.74470    0.07160    1.000
    O1       O        0.91090    0.93300    0.82990    1.000
    O2       O        0.12580    0.04410    0.80750    1.000
    O3       O        0.35510    0.68990    0.51300    1.000
    O4       O        0.24860    0.72700    0.70970    1.000
    O5       O        0.08180    0.76550    0.02340    1.000
    O6       O        0.28960    0.88190    0.99560    1.000
    O7       O        0.56680    0.77830    0.18100    1.000
    O8       O        0.70300    0.79890    0.99480    1.000
    H1       H        0.82240    0.18200    0.62860    1.000
    H2       H        0.21590    0.51280    0.96610    1.000
    Cu2      Cu       0.12287    0.07056    0.98696    1.000
    C11      C        0.98560    0.01240    0.37210    1.000
    C12      C        0.88370    0.11800    0.45010    1.000
    C13      C        0.10040    0.89620    0.42270    1.000
    C14      C        0.97910    0.01600    0.23340    1.000
    C15      C        0.75140    0.24510    0.40280    1.000
    C16      C        0.62480    0.36920    0.99140    1.000
    C17      C        0.45130    0.37810    0.97190    1.000
    C18      C        0.67140    0.49140    0.01820    1.000
    C19      C        0.76230    0.22990    0.98970    1.000
    C20      C        0.39160    0.25530    0.92840    1.000
    O9       O        0.08910    0.06700    0.17010    1.000
    O10      O        0.87420    0.95590    0.19250    1.000
    O11      O        0.64490    0.31010    0.48700    1.000
    O12      O        0.75140    0.27300    0.29030    1.000
    O13      O        0.91820    0.23450    0.97660    1.000
    O14      O        0.71040    0.11810    0.00440    1.000
    O15      O        0.43320    0.22170    0.81900    1.000
    O16      O        0.29700    0.20110    0.00520    1.000
    H3       H        0.17760    0.81800    0.37140    1.000
    H4       H        0.78410    0.48720    0.03390    1.000
    Cu3      Cu       0.50000    0.50000    0.50000    1.000
