# CIF file generated by openbabel 3.1.0, see https://openbabel.org
data_I
_chemical_name_common 'image0'
_cell_length_a 8.7749
_cell_length_b 15.8803
_cell_length_c 9.5077
_cell_angle_alpha 90
_cell_angle_beta 99.855
_cell_angle_gamma 90
_space_group_name_H-M_alt 'P 1'
_space_group_name_Hall 'P 1'
loop_
    _symmetry_equiv_pos_as_xyz
    x,y,z
loop_
    _atom_site_label
    _atom_site_type_symbol
    _atom_site_fract_x
    _atom_site_fract_y
    _atom_site_fract_z
    _atom_site_occupancy
    Y1       Y        0.02877    0.19556    0.52519    1.000
    Se1      Se       0.72186    0.27879    0.70901    1.000
    C1       C        0.76960    0.20350    0.25000    1.000
    C2       C        0.79240    0.29570    0.29850    1.000
    C3       C        0.06820    0.99880    0.45890    1.000
    O1       O        0.74010    0.37790    0.67350    1.000
    O2       O        0.88210    0.22826    0.69660    1.000
    O3       O        0.69690    0.26640    0.87530    1.000
    O4       O        0.57560    0.24090    0.59820    1.000
    O5       O        0.85330    0.15041    0.32600    1.000
    O6       O        0.67080    0.18921    0.14170    1.000
    O7       O        0.71050    0.34969    0.22180    1.000
    O8       O        0.88760    0.31045    0.40820    1.000
    O9       O        0.14010    0.06716    0.45550    1.000
    O10      O        0.09570    0.93097    0.40260    1.000
    Y2       Y        0.47123    0.69556    0.97481    1.000
    Se2      Se       0.77814    0.77879    0.79099    1.000
    C4       C        0.73040    0.70350    0.25000    1.000
    C5       C        0.70760    0.79570    0.20150    1.000
    C6       C        0.43180    0.49880    0.04110    1.000
    O11      O        0.75990    0.87790    0.82650    1.000
    O12      O        0.61790    0.72826    0.80340    1.000
    O13      O        0.80310    0.76640    0.62470    1.000
    O14      O        0.92440    0.74090    0.90180    1.000
    O15      O        0.64670    0.65041    0.17400    1.000
    O16      O        0.82920    0.68921    0.35830    1.000
    O17      O        0.78950    0.84969    0.27820    1.000
    O18      O        0.61240    0.81045    0.09180    1.000
    O19      O        0.35990    0.56716    0.04450    1.000
    O20      O        0.40430    0.43097    0.09740    1.000
    Y3       Y        0.97123    0.80444    0.47481    1.000
    Se3      Se       0.27814    0.72121    0.29099    1.000
    C7       C        0.23040    0.79650    0.75000    1.000
    C8       C        0.20760    0.70430    0.70150    1.000
    C9       C        0.93180    0.00120    0.54110    1.000
    O21      O        0.25990    0.62210    0.32650    1.000
    O22      O        0.11790    0.77174    0.30340    1.000
    O23      O        0.30310    0.73360    0.12470    1.000
    O24      O        0.42440    0.75910    0.40180    1.000
    O25      O        0.14670    0.84959    0.67400    1.000
    O26      O        0.32920    0.81079    0.85830    1.000
    O27      O        0.28950    0.65031    0.77820    1.000
    O28      O        0.11240    0.68955    0.59180    1.000
    O29      O        0.85990    0.93284    0.54450    1.000
    O30      O        0.90430    0.06903    0.59740    1.000
    Y4       Y        0.52877    0.30444    0.02519    1.000
    Se4      Se       0.22186    0.22121    0.20901    1.000
    C10      C        0.26960    0.29650    0.75000    1.000
    C11      C        0.29240    0.20430    0.79850    1.000
    C12      C        0.56820    0.50120    0.95890    1.000
    O31      O        0.24010    0.12210    0.17350    1.000
    O32      O        0.38210    0.27174    0.19660    1.000
    O33      O        0.19690    0.23360    0.37530    1.000
    O34      O        0.07560    0.25910    0.09820    1.000
    O35      O        0.35330    0.34959    0.82600    1.000
    O36      O        0.17080    0.31079    0.64170    1.000
    O37      O        0.21050    0.15031    0.72180    1.000
    O38      O        0.38760    0.18955    0.90820    1.000
    O39      O        0.64010    0.43284    0.95550    1.000
    O40      O        0.59570    0.56903    0.90260    1.000
