# CIF file generated by openbabel 3.1.0, see https://openbabel.org
data_I
_chemical_name_common 'image0'
_cell_length_a 12.7137
_cell_length_b 13.3301
_cell_length_c 13.4034
_cell_angle_alpha 64.676
_cell_angle_beta 61.81
_cell_angle_gamma 84.079
_space_group_name_H-M_alt 'P 1'
_space_group_name_Hall 'P 1'
loop_
    _symmetry_equiv_pos_as_xyz
    x,y,z
loop_
    _atom_site_label
    _atom_site_type_symbol
    _atom_site_fract_x
    _atom_site_fract_y
    _atom_site_fract_z
    _atom_site_occupancy
    W1       W        0.85169    0.26308    0.54495    1.000
    W2       W        0.97449    0.74266    0.76313    1.000
    W3       W        0.82595    0.96526    0.75227    1.000
    W4       W        0.00382    0.20566    0.70131    1.000
    W5       W        0.85080    0.01618    0.29184    1.000
    W6       W        0.82791    0.82173    0.59619    1.000
    O1       O        0.90800    0.40770    0.48310    1.000
    O2       O        0.82650    0.08810    0.62030    1.000
    O3       O        0.86390    0.69940    0.73180    1.000
    O4       O        0.83520    0.95850    0.47250    1.000
    O5       O        0.73930    0.87180    0.72890    1.000
    O6       O        0.86290    0.81440    0.85650    1.000
    O7       O        0.03600    0.21970    0.51540    1.000
    O8       O        0.09990    0.84200    0.73560    1.000
    O9       O        0.84660    0.85510    0.34090    1.000
    O10      O        0.96070    0.02630    0.74270    1.000
    O11      O        0.96060    0.90170    0.61600    1.000
    O12      O        0.85210    0.22520    0.70350    1.000
    O13      O        0.89570    0.26440    0.38830    1.000
    O14      O        0.89920    0.04490    0.13120    1.000
    N1       N        0.85560    0.49010    0.65840    1.000
    C1       C        0.86050    0.47010    0.76090    1.000
    H1       H        0.93320    0.45650    0.76220    1.000
    O15      O        0.45060    0.53770    0.87360    1.000
    N2       N        0.65440    0.48970    0.86760    1.000
    C2       C        0.74680    0.50650    0.66060    1.000
    H2       H        0.73930    0.51750    0.59100    1.000
    O16      O        0.51450    0.55000    0.68090    1.000
    C3       C        0.64730    0.50660    0.76720    1.000
    C4       C        0.75960    0.46900    0.86770    1.000
    H3       H        0.76550    0.45370    0.93920    1.000
    C5       C        0.53060    0.52930    0.77370    1.000
    Cu1      Cu       0.98900    0.99700    0.00900    1.000
    O17      O        0.85880    0.91000    0.03770    1.000
    W7       W        0.14831    0.73692    0.45505    1.000
    W8       W        0.02551    0.25734    0.23687    1.000
    W9       W        0.17405    0.03474    0.24773    1.000
    W10      W        0.99618    0.79434    0.29869    1.000
    W11      W        0.14920    0.98382    0.70816    1.000
    W12      W        0.17209    0.17827    0.40381    1.000
    O18      O        0.09200    0.59230    0.51690    1.000
    O19      O        0.17350    0.91190    0.37970    1.000
    O20      O        0.13610    0.30060    0.26820    1.000
    O21      O        0.16480    0.04150    0.52750    1.000
    O22      O        0.26070    0.12820    0.27110    1.000
    O23      O        0.13710    0.18560    0.14350    1.000
    O24      O        0.96400    0.78030    0.48460    1.000
    O25      O        0.90010    0.15800    0.26440    1.000
    O26      O        0.15340    0.14490    0.65910    1.000
    O27      O        0.03930    0.97370    0.25730    1.000
    O28      O        0.03940    0.09830    0.38400    1.000
    O29      O        0.14790    0.77480    0.29650    1.000
    O30      O        0.10430    0.73560    0.61170    1.000
    O31      O        0.10080    0.95510    0.86880    1.000
    N3       N        0.14440    0.50990    0.34160    1.000
    C6       C        0.13950    0.52990    0.23910    1.000
    H4       H        0.06680    0.54350    0.23780    1.000
    O32      O        0.54940    0.46230    0.12640    1.000
    N4       N        0.34560    0.51030    0.13240    1.000
    C7       C        0.25320    0.49350    0.33940    1.000
    H5       H        0.26070    0.48250    0.40900    1.000
    O33      O        0.48550    0.45000    0.31910    1.000
    C8       C        0.35270    0.49340    0.23280    1.000
    C9       C        0.24040    0.53100    0.13230    1.000
    H6       H        0.23450    0.54630    0.06080    1.000
    C10      C        0.46940    0.47070    0.22630    1.000
    Cu2      Cu       0.01100    0.00300    0.99100    1.000
    O34      O        0.14120    0.09000    0.96230    1.000
    Cu3      Cu       0.00000    0.50000    0.50000    1.000
    Cu4      Cu       0.50000    0.50000    0.00000    1.000
