# CIF file generated by openbabel 3.1.0, see https://openbabel.org
data_I
_chemical_name_common 'WUNSII02_charged'
_cell_length_a 15.8955
_cell_length_b 15.8955
_cell_length_c 21.599
_cell_angle_alpha 90
_cell_angle_beta 90
_cell_angle_gamma 90
_space_group_name_H-M_alt 'P 1'
_space_group_name_Hall 'P 1'
loop_
    _symmetry_equiv_pos_as_xyz
    x,y,z
loop_
    _atom_site_label
    _atom_site_type_symbol
    _atom_site_fract_x
    _atom_site_fract_y
    _atom_site_fract_z
    _atom_site_occupancy
    Cd1      Cd       0.44147    0.44147    0.00000    1.000
    Cd2      Cd       0.55853    0.55853    0.50000    1.000
    Cd3      Cd       0.05853    0.94147    0.25000    1.000
    Cd4      Cd       0.94147    0.05853    0.75000    1.000
    H1       H        0.11120    0.96090    0.10000    1.000
    H2       H        0.21670    0.91410    0.03610    1.000
    H3       H        0.24020    0.71420    0.14510    1.000
    H4       H        0.13990    0.77030    0.20970    1.000
    H5       H        0.30190    0.85200    0.97100    1.000
    H6       H        0.41120    0.79910    0.91520    1.000
    H7       H        0.50350    0.70060    0.95890    1.000
    H8       H        0.36120    0.69690    0.11130    1.000
    H9       H        0.62200    0.45520    0.20850    1.000
    H10      H        0.73080    0.43740    0.27730    1.000
    H11      H        0.83740    0.53320    0.28490    1.000
    H12      H        0.72220    0.67650    0.15640    1.000
    H13      H        0.90240    0.65050    0.30980    1.000
    H14      H        0.99370    0.76010    0.32060    1.000
    H15      H        0.93770    0.84440    0.15870    1.000
    H16      H        0.84350    0.73700    0.14310    1.000
    H17      H        0.53160    0.75000    0.15460    1.000
    H18      H        0.58370    0.76430    0.10030    1.000
    H19      H        0.88880    0.03910    0.60000    1.000
    H20      H        0.78330    0.08590    0.53610    1.000
    H21      H        0.75980    0.28580    0.64510    1.000
    H22      H        0.86010    0.22970    0.70970    1.000
    H23      H        0.69810    0.14800    0.47100    1.000
    H24      H        0.58880    0.20090    0.41520    1.000
    H25      H        0.49650    0.29940    0.45890    1.000
    H26      H        0.63880    0.30310    0.61130    1.000
    H27      H        0.37800    0.54480    0.70850    1.000
    H28      H        0.26920    0.56260    0.77730    1.000
    H29      H        0.16260    0.46680    0.78490    1.000
    H30      H        0.27780    0.32350    0.65640    1.000
    H31      H        0.09760    0.34950    0.80980    1.000
    H32      H        0.00630    0.23990    0.82060    1.000
    H33      H        0.06230    0.15560    0.65870    1.000
    H34      H        0.15650    0.26300    0.64310    1.000
    H35      H        0.46840    0.25000    0.65460    1.000
    H36      H        0.41630    0.23570    0.60030    1.000
    H37      H        0.53910    0.61120    0.35000    1.000
    H38      H        0.58590    0.71670    0.28610    1.000
    H39      H        0.78580    0.74020    0.39510    1.000
    H40      H        0.72970    0.63990    0.45970    1.000
    H41      H        0.64800    0.80190    0.22100    1.000
    H42      H        0.70090    0.91120    0.16520    1.000
    H43      H        0.79940    0.00350    0.20890    1.000
    H44      H        0.80310    0.86120    0.36130    1.000
    H45      H        0.04480    0.12200    0.45850    1.000
    H46      H        0.06260    0.23080    0.52730    1.000
    H47      H        0.96680    0.33740    0.53490    1.000
    H48      H        0.82350    0.22220    0.40640    1.000
    H49      H        0.84950    0.40240    0.55980    1.000
    H50      H        0.73990    0.49370    0.57060    1.000
    H51      H        0.65560    0.43770    0.40870    1.000
    H52      H        0.76300    0.34350    0.39310    1.000
    H53      H        0.75000    0.03160    0.40460    1.000
    H54      H        0.73570    0.08370    0.35030    1.000
    H55      H        0.46090    0.38880    0.85000    1.000
    H56      H        0.41410    0.28330    0.78610    1.000
    H57      H        0.21420    0.25980    0.89510    1.000
    H58      H        0.27030    0.36010    0.95970    1.000
    H59      H        0.35200    0.19810    0.72100    1.000
    H60      H        0.29910    0.08880    0.66520    1.000
    H61      H        0.20060    0.99650    0.70890    1.000
    H62      H        0.19690    0.13880    0.86130    1.000
    H63      H        0.95520    0.87800    0.95850    1.000
    H64      H        0.93740    0.76920    0.02730    1.000
    H65      H        0.03320    0.66260    0.03490    1.000
    H66      H        0.17650    0.77780    0.90640    1.000
    H67      H        0.15050    0.59760    0.05980    1.000
    H68      H        0.26010    0.50630    0.07060    1.000
    H69      H        0.34440    0.56230    0.90870    1.000
    H70      H        0.23700    0.65650    0.89310    1.000
    H71      H        0.25000    0.96840    0.90460    1.000
    H72      H        0.26430    0.91630    0.85030    1.000
    H73      H        0.38880    0.46090    0.15000    1.000
    H74      H        0.28330    0.41410    0.21390    1.000
    H75      H        0.25980    0.21420    0.10490    1.000
    H76      H        0.36010    0.27030    0.04030    1.000
    H77      H        0.19810    0.35200    0.27900    1.000
    H78      H        0.08880    0.29910    0.33480    1.000
    H79      H        0.99650    0.20060    0.29110    1.000
    H80      H        0.13880    0.19690    0.13870    1.000
    H81      H        0.87800    0.95520    0.04150    1.000
    H82      H        0.76920    0.93740    0.97270    1.000
    H83      H        0.66260    0.03320    0.96510    1.000
    H84      H        0.77780    0.17650    0.09360    1.000
    H85      H        0.59760    0.15050    0.94020    1.000
    H86      H        0.50630    0.26010    0.92940    1.000
    H87      H        0.56230    0.34440    0.09130    1.000
    H88      H        0.65650    0.23700    0.10690    1.000
    H89      H        0.96840    0.25000    0.09540    1.000
    H90      H        0.91630    0.26430    0.14970    1.000
    H91      H        0.61120    0.53910    0.65000    1.000
    H92      H        0.71670    0.58590    0.71390    1.000
    H93      H        0.74020    0.78580    0.60490    1.000
    H94      H        0.63990    0.72970    0.54030    1.000
    H95      H        0.80190    0.64800    0.77900    1.000
    H96      H        0.91120    0.70090    0.83480    1.000
    H97      H        0.00350    0.79940    0.79110    1.000
    H98      H        0.86120    0.80310    0.63870    1.000
    H99      H        0.12200    0.04480    0.54150    1.000
    H100     H        0.23080    0.06260    0.47270    1.000
    H101     H        0.33740    0.96680    0.46510    1.000
    H102     H        0.22220    0.82350    0.59360    1.000
    H103     H        0.40240    0.84950    0.44020    1.000
    H104     H        0.49370    0.73990    0.42940    1.000
    H105     H        0.43770    0.65560    0.59130    1.000
    H106     H        0.34350    0.76300    0.60690    1.000
    H107     H        0.03160    0.75000    0.59540    1.000
    H108     H        0.08370    0.73570    0.64970    1.000
    H109     H        0.96090    0.11120    0.90000    1.000
    H110     H        0.91410    0.21670    0.96390    1.000
    H111     H        0.71420    0.24020    0.85490    1.000
    H112     H        0.77030    0.13990    0.79030    1.000
    H113     H        0.85200    0.30190    0.02900    1.000
    H114     H        0.79910    0.41120    0.08480    1.000
    H115     H        0.70060    0.50350    0.04110    1.000
    H116     H        0.69690    0.36120    0.88870    1.000
    H117     H        0.45520    0.62200    0.79150    1.000
    H118     H        0.43740    0.73080    0.72270    1.000
    H119     H        0.53320    0.83740    0.71510    1.000
    H120     H        0.67650    0.72220    0.84360    1.000
    H121     H        0.65050    0.90240    0.69020    1.000
    H122     H        0.76010    0.99370    0.67940    1.000
    H123     H        0.84440    0.93770    0.84130    1.000
    H124     H        0.73700    0.84350    0.85690    1.000
    H125     H        0.75000    0.53160    0.84540    1.000
    H126     H        0.76430    0.58370    0.89970    1.000
    H127     H        0.03910    0.88880    0.40000    1.000
    H128     H        0.08590    0.78330    0.46390    1.000
    H129     H        0.28580    0.75980    0.35490    1.000
    H130     H        0.22970    0.86010    0.29030    1.000
    H131     H        0.14800    0.69810    0.52900    1.000
    H132     H        0.20090    0.58880    0.58480    1.000
    H133     H        0.29940    0.49650    0.54110    1.000
    H134     H        0.30310    0.63880    0.38870    1.000
    H135     H        0.54480    0.37800    0.29150    1.000
    H136     H        0.56260    0.26920    0.22270    1.000
    H137     H        0.46680    0.16260    0.21510    1.000
    H138     H        0.32350    0.27780    0.34360    1.000
    H139     H        0.34950    0.09760    0.19020    1.000
    H140     H        0.23990    0.00630    0.17940    1.000
    H141     H        0.15560    0.06230    0.34130    1.000
    H142     H        0.26300    0.15650    0.35690    1.000
    H143     H        0.25000    0.46840    0.34540    1.000
    H144     H        0.23570    0.41630    0.39970    1.000
    C1       C        0.14050    0.91260    0.11120    1.000
    C2       C        0.20320    0.88370    0.07150    1.000
    C3       C        0.24570    0.80920    0.08490    1.000
    C4       C        0.21770    0.76680    0.13610    1.000
    C5       C        0.15660    0.80040    0.17480    1.000
    C6       C        0.31800    0.77960    0.04750    1.000
    C7       C        0.33580    0.81030    0.98810    1.000
    C8       C        0.40200    0.77990    0.95530    1.000
    C9       C        0.45700    0.71960    0.98100    1.000
    C10      C        0.44000    0.68920    0.04030    1.000
    C11      C        0.37210    0.71830    0.07210    1.000
    C12      C        0.49560    0.62650    0.07020    1.000
    C13      C        0.59240    0.57620    0.13260    1.000
    C14      C        0.66050    0.56820    0.17570    1.000
    C15      C        0.66380    0.49590    0.21180    1.000
    C16      C        0.72950    0.48520    0.25240    1.000
    C17      C        0.79330    0.54270    0.25750    1.000
    C18      C        0.79200    0.61750    0.22060    1.000
    C19      C        0.72480    0.62820    0.18060    1.000
    C20      C        0.85810    0.68290    0.22630    1.000
    C21      C        0.90690    0.69020    0.27830    1.000
    C22      C        0.96280    0.75620    0.28420    1.000
    C23      C        0.93010    0.80520    0.19020    1.000
    C24      C        0.87230    0.74070    0.18050    1.000
    C25      C        0.85950    0.08740    0.61120    1.000
    C26      C        0.79680    0.11630    0.57150    1.000
    C27      C        0.75430    0.19080    0.58490    1.000
    C28      C        0.78230    0.23320    0.63610    1.000
    C29      C        0.84340    0.19960    0.67480    1.000
    C30      C        0.68200    0.22040    0.54750    1.000
    C31      C        0.66420    0.18970    0.48810    1.000
    C32      C        0.59800    0.22010    0.45530    1.000
    C33      C        0.54300    0.28040    0.48100    1.000
    C34      C        0.56000    0.31080    0.54030    1.000
    C35      C        0.62790    0.28170    0.57210    1.000
    C36      C        0.50440    0.37350    0.57020    1.000
    C37      C        0.40760    0.42380    0.63260    1.000
    C38      C        0.33950    0.43180    0.67570    1.000
    C39      C        0.33620    0.50410    0.71180    1.000
    C40      C        0.27050    0.51480    0.75240    1.000
    C41      C        0.20670    0.45730    0.75750    1.000
    C42      C        0.20800    0.38250    0.72060    1.000
    C43      C        0.27520    0.37180    0.68060    1.000
    C44      C        0.14190    0.31710    0.72630    1.000
    C45      C        0.09310    0.30980    0.77830    1.000
    C46      C        0.03720    0.24380    0.78420    1.000
    C47      C        0.06990    0.19480    0.69020    1.000
    C48      C        0.12770    0.25930    0.68050    1.000
    C49      C        0.58740    0.64050    0.36120    1.000
    C50      C        0.61630    0.70320    0.32150    1.000
    C51      C        0.69080    0.74570    0.33490    1.000
    C52      C        0.73320    0.71770    0.38610    1.000
    C53      C        0.69960    0.65660    0.42480    1.000
    C54      C        0.72040    0.81800    0.29750    1.000
    C55      C        0.68970    0.83580    0.23810    1.000
    C56      C        0.72010    0.90200    0.20530    1.000
    C57      C        0.78040    0.95700    0.23100    1.000
    C58      C        0.81080    0.94000    0.29030    1.000
    C59      C        0.78170    0.87210    0.32210    1.000
    C60      C        0.87350    0.99560    0.32020    1.000
    C61      C        0.92380    0.09240    0.38260    1.000
    C62      C        0.93180    0.16050    0.42570    1.000
    C63      C        0.00410    0.16380    0.46180    1.000
    C64      C        0.01480    0.22950    0.50240    1.000
    C65      C        0.95730    0.29330    0.50750    1.000
    C66      C        0.88250    0.29200    0.47060    1.000
    C67      C        0.87180    0.22480    0.43060    1.000
    C68      C        0.81710    0.35810    0.47630    1.000
    C69      C        0.80980    0.40690    0.52830    1.000
    C70      C        0.74380    0.46280    0.53420    1.000
    C71      C        0.69480    0.43010    0.44020    1.000
    C72      C        0.75930    0.37230    0.43050    1.000
    C73      C        0.41260    0.35950    0.86120    1.000
    C74      C        0.38370    0.29680    0.82150    1.000
    C75      C        0.30920    0.25430    0.83490    1.000
    C76      C        0.26680    0.28230    0.88610    1.000
    C77      C        0.30040    0.34340    0.92480    1.000
    C78      C        0.27960    0.18200    0.79750    1.000
    C79      C        0.31030    0.16420    0.73810    1.000
    C80      C        0.27990    0.09800    0.70530    1.000
    C81      C        0.21960    0.04300    0.73100    1.000
    C82      C        0.18920    0.06000    0.79030    1.000
    C83      C        0.21830    0.12790    0.82210    1.000
    C84      C        0.12650    0.00440    0.82020    1.000
    C85      C        0.07620    0.90760    0.88260    1.000
    C86      C        0.06820    0.83950    0.92570    1.000
    C87      C        0.99590    0.83620    0.96180    1.000
    C88      C        0.98520    0.77050    0.00240    1.000
    C89      C        0.04270    0.70670    0.00750    1.000
    C90      C        0.11750    0.70800    0.97060    1.000
    C91      C        0.12820    0.77520    0.93060    1.000
    C92      C        0.18290    0.64190    0.97630    1.000
    C93      C        0.19020    0.59310    0.02830    1.000
    C94      C        0.25620    0.53720    0.03420    1.000
    C95      C        0.30520    0.56990    0.94020    1.000
    C96      C        0.24070    0.62770    0.93050    1.000
    C97      C        0.35950    0.41260    0.13880    1.000
    C98      C        0.29680    0.38370    0.17850    1.000
    C99      C        0.25430    0.30920    0.16510    1.000
    C100     C        0.28230    0.26680    0.11390    1.000
    C101     C        0.34340    0.30040    0.07520    1.000
    C102     C        0.18200    0.27960    0.20250    1.000
    C103     C        0.16420    0.31030    0.26190    1.000
    C104     C        0.09800    0.27990    0.29470    1.000
    C105     C        0.04300    0.21960    0.26900    1.000
    C106     C        0.06000    0.18920    0.20970    1.000
    C107     C        0.12790    0.21830    0.17790    1.000
    C108     C        0.00440    0.12650    0.17980    1.000
    C109     C        0.90760    0.07620    0.11740    1.000
    C110     C        0.83950    0.06820    0.07430    1.000
    C111     C        0.83620    0.99590    0.03820    1.000
    C112     C        0.77050    0.98520    0.99760    1.000
    C113     C        0.70670    0.04270    0.99250    1.000
    C114     C        0.70800    0.11750    0.02940    1.000
    C115     C        0.77520    0.12820    0.06940    1.000
    C116     C        0.64190    0.18290    0.02370    1.000
    C117     C        0.59310    0.19020    0.97170    1.000
    C118     C        0.53720    0.25620    0.96580    1.000
    C119     C        0.56990    0.30520    0.05980    1.000
    C120     C        0.62770    0.24070    0.06950    1.000
    C121     C        0.64050    0.58740    0.63880    1.000
    C122     C        0.70320    0.61630    0.67850    1.000
    C123     C        0.74570    0.69080    0.66510    1.000
    C124     C        0.71770    0.73320    0.61390    1.000
    C125     C        0.65660    0.69960    0.57520    1.000
    C126     C        0.81800    0.72040    0.70250    1.000
    C127     C        0.83580    0.68970    0.76190    1.000
    C128     C        0.90200    0.72010    0.79470    1.000
    C129     C        0.95700    0.78040    0.76900    1.000
    C130     C        0.94000    0.81080    0.70970    1.000
    C131     C        0.87210    0.78170    0.67790    1.000
    C132     C        0.99560    0.87350    0.67980    1.000
    C133     C        0.09240    0.92380    0.61740    1.000
    C134     C        0.16050    0.93180    0.57430    1.000
    C135     C        0.16380    0.00410    0.53820    1.000
    C136     C        0.22950    0.01480    0.49760    1.000
    C137     C        0.29330    0.95730    0.49250    1.000
    C138     C        0.29200    0.88250    0.52940    1.000
    C139     C        0.22480    0.87180    0.56940    1.000
    C140     C        0.35810    0.81710    0.52370    1.000
    C141     C        0.40690    0.80980    0.47170    1.000
    C142     C        0.46280    0.74380    0.46580    1.000
    C143     C        0.43010    0.69480    0.55980    1.000
    C144     C        0.37230    0.75930    0.56950    1.000
    C145     C        0.91260    0.14050    0.88880    1.000
    C146     C        0.88370    0.20320    0.92850    1.000
    C147     C        0.80920    0.24570    0.91510    1.000
    C148     C        0.76680    0.21770    0.86390    1.000
    C149     C        0.80040    0.15660    0.82520    1.000
    C150     C        0.77960    0.31800    0.95250    1.000
    C151     C        0.81030    0.33580    0.01190    1.000
    C152     C        0.77990    0.40200    0.04470    1.000
    C153     C        0.71960    0.45700    0.01900    1.000
    C154     C        0.68920    0.44000    0.95970    1.000
    C155     C        0.71830    0.37210    0.92790    1.000
    C156     C        0.62650    0.49560    0.92980    1.000
    C157     C        0.57620    0.59240    0.86740    1.000
    C158     C        0.56820    0.66050    0.82430    1.000
    C159     C        0.49590    0.66380    0.78820    1.000
    C160     C        0.48520    0.72950    0.74760    1.000
    C161     C        0.54270    0.79330    0.74250    1.000
    C162     C        0.61750    0.79200    0.77940    1.000
    C163     C        0.62820    0.72480    0.81940    1.000
    C164     C        0.68290    0.85810    0.77370    1.000
    C165     C        0.69020    0.90690    0.72170    1.000
    C166     C        0.75620    0.96280    0.71580    1.000
    C167     C        0.80520    0.93010    0.80980    1.000
    C168     C        0.74070    0.87230    0.81950    1.000
    C169     C        0.08740    0.85950    0.38880    1.000
    C170     C        0.11630    0.79680    0.42850    1.000
    C171     C        0.19080    0.75430    0.41510    1.000
    C172     C        0.23320    0.78230    0.36390    1.000
    C173     C        0.19960    0.84340    0.32520    1.000
    C174     C        0.22040    0.68200    0.45250    1.000
    C175     C        0.18970    0.66420    0.51190    1.000
    C176     C        0.22010    0.59800    0.54470    1.000
    C177     C        0.28040    0.54300    0.51900    1.000
    C178     C        0.31080    0.56000    0.45970    1.000
    C179     C        0.28170    0.62790    0.42790    1.000
    C180     C        0.37350    0.50440    0.42980    1.000
    C181     C        0.42380    0.40760    0.36740    1.000
    C182     C        0.43180    0.33950    0.32430    1.000
    C183     C        0.50410    0.33620    0.28820    1.000
    C184     C        0.51480    0.27050    0.24760    1.000
    C185     C        0.45730    0.20670    0.24250    1.000
    C186     C        0.38250    0.20800    0.27940    1.000
    C187     C        0.37180    0.27520    0.31940    1.000
    C188     C        0.31710    0.14190    0.27370    1.000
    C189     C        0.30980    0.09310    0.22170    1.000
    C190     C        0.24380    0.03720    0.21580    1.000
    C191     C        0.19480    0.06990    0.30980    1.000
    C192     C        0.25930    0.12770    0.31950    1.000
    N1       N        0.55500    0.51250    0.10480    1.000
    N2       N        0.49360    0.54470    0.06610    1.000
    N3       N        0.55630    0.64850    0.11150    1.000
    N4       N        0.57490    0.73080    0.13270    1.000
    N5       N        0.97500    0.81400    0.24160    1.000
    N6       N        0.12060    0.87620    0.16290    1.000
    N7       N        0.44500    0.48750    0.60480    1.000
    N8       N        0.50640    0.45530    0.56610    1.000
    N9       N        0.44370    0.35150    0.61150    1.000
    N10      N        0.42510    0.26920    0.63270    1.000
    N11      N        0.02500    0.18600    0.74160    1.000
    N12      N        0.87940    0.12380    0.66290    1.000
    N13      N        0.98750    0.05500    0.35480    1.000
    N14      N        0.95530    0.99360    0.31610    1.000
    N15      N        0.85150    0.05630    0.36150    1.000
    N16      N        0.76920    0.07490    0.38270    1.000
    N17      N        0.68600    0.47500    0.49160    1.000
    N18      N        0.62380    0.62060    0.41290    1.000
    N19      N        0.01250    0.94500    0.85480    1.000
    N20      N        0.04470    0.00640    0.81610    1.000
    N21      N        0.14850    0.94370    0.86150    1.000
    N22      N        0.23080    0.92510    0.88270    1.000
    N23      N        0.31400    0.52500    0.99160    1.000
    N24      N        0.37620    0.37940    0.91290    1.000
    N25      N        0.94500    0.01250    0.14520    1.000
    N26      N        0.00640    0.04470    0.18390    1.000
    N27      N        0.94370    0.14850    0.13850    1.000
    N28      N        0.92510    0.23080    0.11730    1.000
    N29      N        0.52500    0.31400    0.00840    1.000
    N30      N        0.37940    0.37620    0.08710    1.000
    N31      N        0.05500    0.98750    0.64520    1.000
    N32      N        0.99360    0.95530    0.68390    1.000
    N33      N        0.05630    0.85150    0.63850    1.000
    N34      N        0.07490    0.76920    0.61730    1.000
    N35      N        0.47500    0.68600    0.50840    1.000
    N36      N        0.62060    0.62380    0.58710    1.000
    N37      N        0.51250    0.55500    0.89520    1.000
    N38      N        0.54470    0.49360    0.93390    1.000
    N39      N        0.64850    0.55630    0.88850    1.000
    N40      N        0.73080    0.57490    0.86730    1.000
    N41      N        0.81400    0.97500    0.75840    1.000
    N42      N        0.87620    0.12060    0.83710    1.000
    N43      N        0.48750    0.44500    0.39520    1.000
    N44      N        0.45530    0.50640    0.43390    1.000
    N45      N        0.35150    0.44370    0.38850    1.000
    N46      N        0.26920    0.42510    0.36730    1.000
    N47      N        0.18600    0.02500    0.25840    1.000
    N48      N        0.12380    0.87940    0.33710    1.000
    Cl1      Cl       0.73144    0.73144    0.00000    1.000
    O1       O        0.75650    0.77500    0.05340    1.000
    O2       O        0.66100    0.77600    0.97370    1.000
    O3       O        0.77500    0.75650    0.94660    1.000
    O4       O        0.77600    0.66100    0.02630    1.000
    Cl2      Cl       0.26856    0.26856    0.50000    1.000
    O5       O        0.24350    0.22500    0.55340    1.000
    O6       O        0.33900    0.22400    0.47370    1.000
    O7       O        0.22500    0.24350    0.44660    1.000
    O8       O        0.22400    0.33900    0.52630    1.000
    Cl3      Cl       0.76856    0.23144    0.25000    1.000
    O9       O        0.72500    0.25650    0.30340    1.000
    O10      O        0.72400    0.16100    0.22370    1.000
    O11      O        0.74350    0.27500    0.19660    1.000
    O12      O        0.83900    0.27600    0.27630    1.000
    Cl4      Cl       0.23144    0.76856    0.75000    1.000
    O13      O        0.27500    0.74350    0.80340    1.000
    O14      O        0.27600    0.83900    0.72370    1.000
    O15      O        0.25650    0.72500    0.69660    1.000
    O16      O        0.16100    0.72400    0.77630    1.000
