# CIF file generated by openbabel 3.1.0, see https://openbabel.org
data_I
_chemical_name_common 'image0'
_cell_length_a 10.504
_cell_length_b 12.106
_cell_length_c 12.411
_cell_angle_alpha 66.78
_cell_angle_beta 70.34
_cell_angle_gamma 65.04
_space_group_name_H-M_alt 'P 1'
_space_group_name_Hall 'P 1'
loop_
    _symmetry_equiv_pos_as_xyz
    x,y,z
loop_
    _atom_site_label
    _atom_site_type_symbol
    _atom_site_fract_x
    _atom_site_fract_y
    _atom_site_fract_z
    _atom_site_occupancy
    O1       O        0.81080    0.59100    0.82300    1.000
    Co1      Co       0.84096    0.40953    0.90888    1.000
    O2       O        0.82200    0.20450    0.05380    1.000
    O3       O        0.69710    0.39900    0.06480    1.000
    O4       O        0.80190    0.35800    0.79650    1.000
    O5       O        0.56830    0.39480    0.87890    1.000
    O6       O        0.57140    0.64790    0.87020    1.000
    O7       O        0.82010    0.92430    0.42960    1.000
    O8       O        0.81020    0.97950    0.77370    1.000
    O9       O        0.80510    0.30550    0.42790    1.000
    N1       N        0.26660    0.22530    0.94430    1.000
    N2       N        0.04700    0.34920    0.92200    1.000
    N3       N        0.81800    0.94710    0.60280    1.000
    N4       N        0.81450    0.14250    0.60190    1.000
    N5       N        0.81890    0.11480    0.42440    1.000
    C1       C        0.81250    0.01990    0.66770    1.000
    C2       C        0.81090    0.19550    0.48140    1.000
    C3       C        0.81680    0.99130    0.48220    1.000
    C4       C        0.49630    0.11340    0.00660    1.000
    H1       H        0.49390    0.18910    0.01110    1.000
    C5       C        0.38550    0.11090    0.97290    1.000
    C6       C        0.68080    0.35200    0.80840    1.000
    C7       C        0.13390    0.42340    0.87860    1.000
    H2       H        0.10390    0.51150    0.84480    1.000
    C8       C        0.83550    0.16160    0.29330    1.000
    H3       H        0.89430    0.09030    0.26120    1.000
    H4       H        0.88660    0.22200    0.26170    1.000
    C9       C        0.26880    0.34840    0.89270    1.000
    H5       H        0.34760    0.37460    0.87170    1.000
    C10      C        0.67270    0.28490    0.73180    1.000
    H6       H        0.61410    0.34650    0.67380    1.000
    H7       H        0.62690    0.22160    0.78220    1.000
    C11      C        0.73860    0.27580    0.11430    1.000
    C12      C        0.38760    0.99820    0.96600    1.000
    H8       H        0.31240    0.99700    0.94330    1.000
    C13      C        0.13030    0.23140    0.96080    1.000
    H9       H        0.09940    0.16120    0.99540    1.000
    C14      C        0.82070    0.22000    0.66600    1.000
    H10      H        0.86200    0.28440    0.60900    1.000
    H11      H        0.88260    0.16560    0.72320    1.000
    C15      C        0.69650    0.22530    0.24880    1.000
    H12      H        0.64830    0.16430    0.27040    1.000
    H13      H        0.63280    0.29430    0.28290    1.000
    C16      C        0.67790    0.79970    0.72270    1.000
    H14      H        0.61760    0.86490    0.76230    1.000
    H15      H        0.63400    0.81250    0.65940    1.000
    C17      C        0.68580    0.67010    0.81200    1.000
    C18      C        0.82430    0.81390    0.66850    1.000
    H16      H        0.87680    0.78150    0.73180    1.000
    H17      H        0.87670    0.76230    0.61410    1.000
    O10      O        0.18920    0.40900    0.17700    1.000
    Co2      Co       0.15904    0.59047    0.09112    1.000
    O11      O        0.17800    0.79550    0.94620    1.000
    O12      O        0.30290    0.60100    0.93520    1.000
    O13      O        0.19810    0.64200    0.20350    1.000
    O14      O        0.43170    0.60520    0.12110    1.000
    O15      O        0.42860    0.35210    0.12980    1.000
    O16      O        0.17990    0.07570    0.57040    1.000
    O17      O        0.18980    0.02050    0.22630    1.000
    O18      O        0.19490    0.69450    0.57210    1.000
    N6       N        0.73340    0.77470    0.05570    1.000
    N7       N        0.95300    0.65080    0.07800    1.000
    N8       N        0.18200    0.05290    0.39720    1.000
    N9       N        0.18550    0.85750    0.39810    1.000
    N10      N        0.18110    0.88520    0.57560    1.000
    C19      C        0.18750    0.98010    0.33230    1.000
    C20      C        0.18910    0.80450    0.51860    1.000
    C21      C        0.18320    0.00870    0.51780    1.000
    C22      C        0.50370    0.88660    0.99340    1.000
    H18      H        0.50610    0.81090    0.98890    1.000
    C23      C        0.61450    0.88910    0.02710    1.000
    C24      C        0.31920    0.64800    0.19160    1.000
    C25      C        0.86610    0.57660    0.12140    1.000
    H19      H        0.89610    0.48850    0.15520    1.000
    C26      C        0.16450    0.83840    0.70670    1.000
    H20      H        0.10570    0.90970    0.73880    1.000
    H21      H        0.11340    0.77800    0.73830    1.000
    C27      C        0.73120    0.65160    0.10730    1.000
    H22      H        0.65240    0.62540    0.12830    1.000
    C28      C        0.32730    0.71510    0.26820    1.000
    H23      H        0.38590    0.65350    0.32620    1.000
    H24      H        0.37310    0.77840    0.21780    1.000
    C29      C        0.26140    0.72420    0.88570    1.000
    C30      C        0.61240    0.00180    0.03400    1.000
    H25      H        0.68760    0.00300    0.05670    1.000
    C31      C        0.86970    0.76860    0.03920    1.000
    H26      H        0.90060    0.83880    0.00460    1.000
    C32      C        0.17930    0.78000    0.33400    1.000
    H27      H        0.13800    0.71560    0.39100    1.000
    H28      H        0.11740    0.83440    0.27680    1.000
    C33      C        0.30350    0.77470    0.75120    1.000
    H29      H        0.35170    0.83570    0.72960    1.000
    H30      H        0.36720    0.70570    0.71710    1.000
    C34      C        0.32210    0.20030    0.27730    1.000
    H31      H        0.38240    0.13510    0.23770    1.000
    H32      H        0.36600    0.18750    0.34060    1.000
    C35      C        0.31420    0.32990    0.18800    1.000
    C36      C        0.17570    0.18610    0.33150    1.000
    H33      H        0.12320    0.21850    0.26820    1.000
    H34      H        0.12330    0.23770    0.38590    1.000
    Co3      Co       0.50000    0.50000    0.00000    1.000
