# CIF file generated by openbabel 3.1.0, see https://openbabel.org
data_I
_chemical_name_common 'image0'
_cell_length_a 10.429
_cell_length_b 10.429
_cell_length_c 8.99
_cell_angle_alpha 90
_cell_angle_beta 90
_cell_angle_gamma 90
_space_group_name_H-M_alt 'P 1'
_space_group_name_Hall 'P 1'
loop_
    _symmetry_equiv_pos_as_xyz
    x,y,z
loop_
    _atom_site_label
    _atom_site_type_symbol
    _atom_site_fract_x
    _atom_site_fract_y
    _atom_site_fract_z
    _atom_site_occupancy
    Fe1      Fe       0.11891    0.61886    0.15615    1.000
    P1       P        0.89760    0.39759    0.20202    1.000
    O1       O        0.99690    0.49720    0.24520    1.000
    O2       O        0.93590    0.28170    0.31600    1.000
    O3       O        0.07070    0.76880    0.28880    1.000
    O4       O        0.76910    0.43190    0.21160    1.000
    O5       O        0.28200    0.56230    0.18420    1.000
    O6       O        0.94090    0.33590    0.04610    1.000
    O7       O        0.16310    0.55890    0.95310    1.000
    Zn1      Zn       0.88109    0.11886    0.34385    1.000
    Fe2      Fe       0.38109    0.88114    0.15615    1.000
    P2       P        0.60240    0.10241    0.20202    1.000
    O8       O        0.50310    0.00280    0.24520    1.000
    O9       O        0.56410    0.21830    0.31600    1.000
    O10      O        0.42930    0.73120    0.28880    1.000
    O11      O        0.73090    0.06810    0.21160    1.000
    O12      O        0.21800    0.93770    0.18420    1.000
    O13      O        0.55910    0.16410    0.04610    1.000
    O14      O        0.33690    0.94110    0.95310    1.000
    Zn2      Zn       0.61891    0.38114    0.34385    1.000
    P3       P        0.10240    0.89759    0.29798    1.000
    O15      O        0.00310    0.99720    0.25480    1.000
    O16      O        0.06410    0.78170    0.18400    1.000
    O17      O        0.92930    0.26880    0.21120    1.000
    O18      O        0.23090    0.93190    0.28840    1.000
    O19      O        0.71800    0.06230    0.31580    1.000
    O20      O        0.05910    0.83590    0.45390    1.000
    O21      O        0.83690    0.05890    0.54690    1.000
    P4       P        0.39760    0.60241    0.29798    1.000
    O22      O        0.49690    0.50280    0.25480    1.000
    O23      O        0.43590    0.71830    0.18400    1.000
    O24      O        0.57070    0.23120    0.21120    1.000
    O25      O        0.26910    0.56810    0.28840    1.000
    O26      O        0.78200    0.43770    0.31580    1.000
    O27      O        0.44090    0.66410    0.45390    1.000
    O28      O        0.66310    0.44110    0.54690    1.000
    Fe3      Fe       0.88109    0.38114    0.84385    1.000
    P5       P        0.10240    0.60241    0.79798    1.000
    O29      O        0.00310    0.50280    0.75480    1.000
    O30      O        0.06410    0.71830    0.68400    1.000
    O31      O        0.92930    0.23120    0.71120    1.000
    O32      O        0.23090    0.56810    0.78840    1.000
    O33      O        0.71800    0.43770    0.81580    1.000
    O34      O        0.05910    0.66410    0.95390    1.000
    O35      O        0.83690    0.44110    0.04690    1.000
    Zn3      Zn       0.11891    0.88114    0.65615    1.000
    Fe4      Fe       0.61891    0.11886    0.84385    1.000
    P6       P        0.39760    0.89759    0.79798    1.000
    O36      O        0.49690    0.99720    0.75480    1.000
    O37      O        0.43590    0.78170    0.68400    1.000
    O38      O        0.57070    0.26880    0.71120    1.000
    O39      O        0.26910    0.93190    0.78840    1.000
    O40      O        0.78200    0.06230    0.81580    1.000
    O41      O        0.44090    0.83590    0.95390    1.000
    O42      O        0.66310    0.05890    0.04690    1.000
    Zn4      Zn       0.38109    0.61886    0.65615    1.000
    P7       P        0.89760    0.10241    0.70202    1.000
    O43      O        0.99690    0.00280    0.74520    1.000
    O44      O        0.93590    0.21830    0.81600    1.000
    O45      O        0.07070    0.73120    0.78880    1.000
    O46      O        0.76910    0.06810    0.71160    1.000
    O47      O        0.28200    0.93770    0.68420    1.000
    O48      O        0.94090    0.16410    0.54610    1.000
    O49      O        0.16310    0.94110    0.45310    1.000
    P8       P        0.60240    0.39759    0.70202    1.000
    O50      O        0.50310    0.49720    0.74520    1.000
    O51      O        0.56410    0.28170    0.81600    1.000
    O52      O        0.42930    0.76880    0.78880    1.000
    O53      O        0.73090    0.43190    0.71160    1.000
    O54      O        0.21800    0.56230    0.68420    1.000
    O55      O        0.55910    0.33590    0.54610    1.000
    O56      O        0.33690    0.55890    0.45310    1.000
