# CIF file generated by openbabel 3.1.0, see https://openbabel.org
data_I
_chemical_name_common 'image0'
_cell_length_a 13.8039
_cell_length_b 16.8679
_cell_length_c 20.7639
_cell_angle_alpha 90
_cell_angle_beta 90
_cell_angle_gamma 90
_space_group_name_H-M_alt 'P 1'
_space_group_name_Hall 'P 1'
loop_
    _symmetry_equiv_pos_as_xyz
    x,y,z
loop_
    _atom_site_label
    _atom_site_type_symbol
    _atom_site_fract_x
    _atom_site_fract_y
    _atom_site_fract_z
    _atom_site_occupancy
    Ni1      Ni       0.88000    0.20366    0.07707    1.000
    Ni2      Ni       0.03669    0.20287    0.41362    1.000
    N1       N        0.82975    0.20902    0.17056    1.000
    C1       C        0.81010    0.21249    0.22406    1.000
    N2       N        0.90130    0.21513    0.37065    1.000
    C2       C        0.84720    0.21475    0.32899    1.000
    N3       N        0.77980    0.21490    0.28413    1.000
    N4       N        0.01937    0.19252    0.11780    1.000
    C3       C        0.07050    0.18631    0.16083    1.000
    N5       N        0.09432    0.19501    0.32062    1.000
    C4       C        0.11020    0.18910    0.26666    1.000
    N6       N        0.13690    0.18000    0.20623    1.000
    N7       N        0.93595    0.20419    0.98276    1.000
    C5       C        0.99750    0.23723    0.95700    1.000
    N8       N        0.23384    0.28460    0.94791    1.000
    C6       C        0.15190    0.27914    0.93853    1.000
    N9       N        0.06011    0.27730    0.92273    1.000
    N10      N        0.90103    0.32539    0.07437    1.000
    C7       C        0.94070    0.38342    0.06327    1.000
    N11      N        0.97955    0.58229    0.08092    1.000
    C8       C        0.98070    0.51636    0.06723    1.000
    N12      N        0.99380    0.44429    0.04606    1.000
    N13      N        0.17380    0.19125    0.45429    1.000
    C9       C        0.25700    0.19064    0.45697    1.000
    N14      N        0.46693    0.28415    0.49491    1.000
    C10      C        0.40880    0.23985    0.47890    1.000
    N15      N        0.35210    0.18295    0.45775    1.000
    N16      N        0.94120    0.82375    0.08913    1.000
    C11      C        0.89820    0.88191    0.09151    1.000
    N17      N        0.86916    0.08224    0.07311    1.000
    C12      C        0.86230    0.01541    0.08300    1.000
    N18      N        0.83901    0.94188    0.09644    1.000
    Ni3      Ni       0.62000    0.79634    0.57707    1.000
    Ni4      Ni       0.46331    0.79713    0.91362    1.000
    N19      N        0.67025    0.79098    0.67056    1.000
    C13      C        0.68990    0.78751    0.72406    1.000
    N20      N        0.59870    0.78487    0.87065    1.000
    C14      C        0.65280    0.78525    0.82899    1.000
    N21      N        0.72020    0.78510    0.78413    1.000
    N22      N        0.48063    0.80748    0.61780    1.000
    C15      C        0.42950    0.81369    0.66083    1.000
    N23      N        0.40568    0.80499    0.82062    1.000
    C16      C        0.38980    0.81090    0.76666    1.000
    N24      N        0.36310    0.82000    0.70623    1.000
    N25      N        0.56405    0.79581    0.48276    1.000
    C17      C        0.50250    0.76277    0.45700    1.000
    N26      N        0.26616    0.71540    0.44791    1.000
    C18      C        0.34810    0.72086    0.43853    1.000
    N27      N        0.43989    0.72270    0.42273    1.000
    N28      N        0.59897    0.67461    0.57437    1.000
    C19      C        0.55930    0.61658    0.56327    1.000
    N29      N        0.52045    0.41771    0.58092    1.000
    C20      C        0.51930    0.48364    0.56723    1.000
    N30      N        0.50620    0.55571    0.54606    1.000
    N31      N        0.32620    0.80875    0.95429    1.000
    C21      C        0.24300    0.80936    0.95697    1.000
    N32      N        0.03307    0.71585    0.99491    1.000
    C22      C        0.09120    0.76015    0.97890    1.000
    N33      N        0.14790    0.81705    0.95775    1.000
    N34      N        0.55880    0.17625    0.58913    1.000
    C23      C        0.60180    0.11809    0.59151    1.000
    N35      N        0.63084    0.91776    0.57311    1.000
    C24      C        0.63770    0.98459    0.58300    1.000
    N36      N        0.66099    0.05812    0.59644    1.000
    Ni5      Ni       0.12000    0.70366    0.42293    1.000
    Ni6      Ni       0.96331    0.70287    0.08638    1.000
    N37      N        0.17025    0.70902    0.32944    1.000
    C25      C        0.18990    0.71249    0.27594    1.000
    N38      N        0.09870    0.71513    0.12935    1.000
    C26      C        0.15280    0.71475    0.17101    1.000
    N39      N        0.22020    0.71490    0.21587    1.000
    N40      N        0.98063    0.69252    0.38220    1.000
    C27      C        0.92950    0.68631    0.33917    1.000
    N41      N        0.90568    0.69501    0.17938    1.000
    C28      C        0.88980    0.68910    0.23334    1.000
    N42      N        0.86310    0.68000    0.29377    1.000
    N43      N        0.06405    0.70419    0.51724    1.000
    C29      C        0.00250    0.73723    0.54300    1.000
    N44      N        0.76616    0.78460    0.55209    1.000
    C30      C        0.84810    0.77914    0.56147    1.000
    N45      N        0.93989    0.77730    0.57727    1.000
    N46      N        0.09897    0.82539    0.42563    1.000
    C31      C        0.05930    0.88342    0.43673    1.000
    N47      N        0.02045    0.08229    0.41908    1.000
    C32      C        0.01930    0.01636    0.43277    1.000
    N48      N        0.00620    0.94429    0.45394    1.000
    N49      N        0.82620    0.69125    0.04571    1.000
    C33      C        0.74300    0.69064    0.04303    1.000
    N50      N        0.53307    0.78415    0.00509    1.000
    C34      C        0.59120    0.73985    0.02110    1.000
    N51      N        0.64790    0.68295    0.04225    1.000
    N52      N        0.05880    0.32375    0.41087    1.000
    C35      C        0.10180    0.38191    0.40849    1.000
    N53      N        0.13084    0.58224    0.42689    1.000
    C36      C        0.13770    0.51541    0.41700    1.000
    N54      N        0.16099    0.44188    0.40356    1.000
    Ni7      Ni       0.38000    0.29634    0.92293    1.000
    Ni8      Ni       0.53669    0.29713    0.58638    1.000
    N55      N        0.32975    0.29098    0.82944    1.000
    C37      C        0.31010    0.28751    0.77594    1.000
    N56      N        0.40130    0.28487    0.62935    1.000
    C38      C        0.34720    0.28525    0.67101    1.000
    N57      N        0.27980    0.28510    0.71587    1.000
    N58      N        0.51937    0.30748    0.88220    1.000
    C39      C        0.57050    0.31369    0.83917    1.000
    N59      N        0.59432    0.30499    0.67938    1.000
    C40      C        0.61020    0.31090    0.73334    1.000
    N60      N        0.63690    0.32000    0.79377    1.000
    N61      N        0.43595    0.29581    0.01724    1.000
    C41      C        0.49750    0.26277    0.04300    1.000
    N62      N        0.73384    0.21540    0.05209    1.000
    C42      C        0.65190    0.22086    0.06147    1.000
    N63      N        0.56011    0.22270    0.07727    1.000
    N64      N        0.40103    0.17461    0.92563    1.000
    C43      C        0.44070    0.11658    0.93673    1.000
    N65      N        0.47955    0.91771    0.91908    1.000
    C44      C        0.48070    0.98364    0.93277    1.000
    N66      N        0.49380    0.05571    0.95394    1.000
    N67      N        0.67380    0.30875    0.54571    1.000
    C45      C        0.75700    0.30936    0.54303    1.000
    N68      N        0.96693    0.21585    0.50509    1.000
    C46      C        0.90880    0.26015    0.52110    1.000
    N69      N        0.85210    0.31705    0.54225    1.000
    N70      N        0.44120    0.67625    0.91087    1.000
    C47      C        0.39820    0.61809    0.90849    1.000
    N71      N        0.36916    0.41776    0.92689    1.000
    C48      C        0.36230    0.48459    0.91700    1.000
    N72      N        0.33901    0.55812    0.90356    1.000
