# CIF file generated by openbabel 3.1.0, see https://openbabel.org
data_I
_chemical_name_common 'image0'
_cell_length_a 27.627
_cell_length_b 6.8348
_cell_length_c 28.135
_cell_angle_alpha 90
_cell_angle_beta 90
_cell_angle_gamma 90
_space_group_name_H-M_alt 'P 1'
_space_group_name_Hall 'P 1'
loop_
    _symmetry_equiv_pos_as_xyz
    x,y,z
loop_
    _atom_site_label
    _atom_site_type_symbol
    _atom_site_fract_x
    _atom_site_fract_y
    _atom_site_fract_z
    _atom_site_occupancy
    C1       C        0.56582    0.84000    0.38442    1.000
    C2       C        0.61130    0.10170    0.36543    1.000
    C3       C        0.58590    0.06100    0.44082    1.000
    C4       C        0.56680    0.01100    0.52604    1.000
    H1       H        0.55390    0.88720    0.51490    1.000
    H2       H        0.54150    0.07820    0.54350    1.000
    C5       C        0.60140    0.31730    0.49990    1.000
    H3       H        0.57670    0.39110    0.51660    1.000
    H4       H        0.61070    0.39120    0.47190    1.000
    C6       C        0.52422    0.53690    0.40610    1.000
    H5       H        0.52410    0.59640    0.43740    1.000
    H6       H        0.54530    0.42340    0.40710    1.000
    C7       C        0.54148    0.60810    0.32234    1.000
    H7       H        0.56250    0.49520    0.31890    1.000
    H8       H        0.55320    0.71040    0.30140    1.000
    C8       C        0.64670    0.12580    0.28566    1.000
    H9       H        0.61960    0.04490    0.27580    1.000
    H10      H        0.67520    0.04330    0.28770    1.000
    C9       C        0.67200    0.35380    0.34945    1.000
    H11      H        0.70230    0.28770    0.35630    1.000
    H12      H        0.66050    0.41300    0.37870    1.000
    C10      C        0.65511    0.28620    0.24908    1.000
    H13      H        0.66380    0.22750    0.21890    1.000
    H14      H        0.62540    0.35980    0.24460    1.000
    C11      C        0.68082    0.51380    0.31238    1.000
    H15      H        0.65160    0.59080    0.30840    1.000
    H16      H        0.70630    0.60030    0.32330    1.000
    C12      C        0.69522    0.42410    0.26483    1.000
    H17      H        0.72460    0.34700    0.26970    1.000
    C13      C        0.48973    0.55310    0.30887    1.000
    H18      H        0.46960    0.66930    0.30950    1.000
    H19      H        0.48930    0.50110    0.27680    1.000
    C14      C        0.46917    0.40160    0.34291    1.000
    H20      H        0.48870    0.28200    0.34010    1.000
    C15      C        0.47319    0.47370    0.39298    1.000
    H21      H        0.46300    0.37060    0.41440    1.000
    H22      H        0.45140    0.58360    0.39720    1.000
    C16      C        0.60990    0.97450    0.55833    1.000
    H23      H        0.59920    0.90140    0.58600    1.000
    H24      H        0.63340    0.89490    0.54150    1.000
    C17      C        0.63415    0.16170    0.57471    1.000
    H25      H        0.61080    0.23200    0.59470    1.000
    C18      C        0.64451    0.29170    0.53147    1.000
    H26      H        0.65520    0.41920    0.54240    1.000
    H27      H        0.67070    0.23430    0.51320    1.000
    C19      C        0.70588    0.57600    0.22835    1.000
    C20      C        0.41763    0.35130    0.32984    1.000
    C21      C        0.67960    0.13300    0.60395    1.000
    N1       N        0.58820    0.94370    0.35011    1.000
    N2       N        0.56412    0.88910    0.43060    1.000
    N3       N        0.61146    0.16960    0.41004    1.000
    N4       N        0.54248    0.67640    0.37142    1.000
    N5       N        0.58191    0.12980    0.48557    1.000
    N6       N        0.63639    0.21060    0.33262    1.000
    O1       O        0.74451    0.56840    0.20479    1.000
    O2       O        0.67589    0.71340    0.22120    1.000
    O3       O        0.38296    0.40890    0.35208    1.000
    O4       O        0.41387    0.24530    0.29110    1.000
    O5       O        0.70132    0.28320    0.61845    1.000
    O6       O        0.69584    0.96780    0.61035    1.000
    Sr1      Sr       0.71354    0.86426    0.14340    1.000
    C22      C        0.93418    0.16000    0.88442    1.000
    C23      C        0.88870    0.89830    0.86543    1.000
    C24      C        0.91410    0.93900    0.94082    1.000
    C25      C        0.93320    0.98900    0.02604    1.000
    H28      H        0.94610    0.11280    0.01490    1.000
    H29      H        0.95850    0.92180    0.04350    1.000
    C26      C        0.89860    0.68270    0.99990    1.000
    H30      H        0.92330    0.60890    0.01660    1.000
    H31      H        0.88930    0.60880    0.97190    1.000
    C27      C        0.97578    0.46310    0.90610    1.000
    H32      H        0.97590    0.40360    0.93740    1.000
    H33      H        0.95470    0.57660    0.90710    1.000
    C28      C        0.95852    0.39190    0.82234    1.000
    H34      H        0.93750    0.50480    0.81890    1.000
    H35      H        0.94680    0.28960    0.80140    1.000
    C29      C        0.85330    0.87420    0.78566    1.000
    H36      H        0.88040    0.95510    0.77580    1.000
    H37      H        0.82480    0.95670    0.78770    1.000
    C30      C        0.82800    0.64620    0.84945    1.000
    H38      H        0.79770    0.71230    0.85630    1.000
    H39      H        0.83950    0.58700    0.87870    1.000
    C31      C        0.84489    0.71380    0.74908    1.000
    H40      H        0.83620    0.77250    0.71890    1.000
    H41      H        0.87460    0.64020    0.74460    1.000
    C32      C        0.81918    0.48620    0.81238    1.000
    H42      H        0.84840    0.40920    0.80840    1.000
    H43      H        0.79370    0.39970    0.82330    1.000
    C33      C        0.80478    0.57590    0.76483    1.000
    H44      H        0.77540    0.65300    0.76970    1.000
    C34      C        0.01027    0.44690    0.80887    1.000
    H45      H        0.03040    0.33070    0.80950    1.000
    H46      H        0.01070    0.49890    0.77680    1.000
    C35      C        0.03083    0.59840    0.84291    1.000
    H47      H        0.01130    0.71800    0.84010    1.000
    C36      C        0.02681    0.52630    0.89298    1.000
    H48      H        0.03700    0.62940    0.91440    1.000
    H49      H        0.04860    0.41640    0.89720    1.000
    C37      C        0.89010    0.02550    0.05833    1.000
    H50      H        0.90080    0.09860    0.08600    1.000
    H51      H        0.86660    0.10510    0.04150    1.000
    C38      C        0.86585    0.83830    0.07471    1.000
    H52      H        0.88920    0.76800    0.09470    1.000
    C39      C        0.85549    0.70830    0.03147    1.000
    H53      H        0.84480    0.58080    0.04240    1.000
    H54      H        0.82930    0.76570    0.01320    1.000
    C40      C        0.79412    0.42400    0.72835    1.000
    C41      C        0.08237    0.64870    0.82984    1.000
    C42      C        0.82040    0.86700    0.10395    1.000
    N7       N        0.91180    0.05630    0.85011    1.000
    N8       N        0.93588    0.11090    0.93060    1.000
    N9       N        0.88854    0.83040    0.91004    1.000
    N10      N        0.95752    0.32360    0.87142    1.000
    N11      N        0.91809    0.87020    0.98557    1.000
    N12      N        0.86361    0.78940    0.83262    1.000
    O7       O        0.75549    0.43160    0.70479    1.000
    O8       O        0.82411    0.28660    0.72120    1.000
    O9       O        0.11704    0.59110    0.85208    1.000
    O10      O        0.08613    0.75470    0.79110    1.000
    O11      O        0.79868    0.71680    0.11845    1.000
    O12      O        0.80416    0.03220    0.11035    1.000
    Sr2      Sr       0.78645    0.13574    0.64340    1.000
    C43      C        0.43418    0.34000    0.11558    1.000
    C44      C        0.38870    0.60170    0.13457    1.000
    C45      C        0.41410    0.56100    0.05918    1.000
    C46      C        0.43320    0.51100    0.97396    1.000
    H55      H        0.44610    0.38720    0.98510    1.000
    H56      H        0.45850    0.57820    0.95650    1.000
    C47      C        0.39860    0.81730    0.00010    1.000
    H57      H        0.42330    0.89110    0.98340    1.000
    H58      H        0.38930    0.89120    0.02810    1.000
    C48      C        0.47578    0.03690    0.09390    1.000
    H59      H        0.47590    0.09640    0.06260    1.000
    H60      H        0.45470    0.92340    0.09290    1.000
    C49      C        0.45852    0.10810    0.17766    1.000
    H61      H        0.43750    0.99520    0.18110    1.000
    H62      H        0.44680    0.21040    0.19860    1.000
    C50      C        0.35330    0.62580    0.21434    1.000
    H63      H        0.38040    0.54490    0.22420    1.000
    H64      H        0.32480    0.54330    0.21230    1.000
    C51      C        0.32800    0.85380    0.15055    1.000
    H65      H        0.29770    0.78770    0.14370    1.000
    H66      H        0.33950    0.91300    0.12130    1.000
    C52      C        0.34489    0.78620    0.25092    1.000
    H67      H        0.33620    0.72750    0.28110    1.000
    H68      H        0.37460    0.85980    0.25540    1.000
    C53      C        0.31918    0.01380    0.18762    1.000
    H69      H        0.34840    0.09080    0.19160    1.000
    H70      H        0.29370    0.10030    0.17670    1.000
    C54      C        0.30478    0.92410    0.23517    1.000
    H71      H        0.27540    0.84700    0.23030    1.000
    C55      C        0.51027    0.05310    0.19113    1.000
    H72      H        0.53040    0.16930    0.19050    1.000
    H73      H        0.51070    0.00110    0.22320    1.000
    C56      C        0.53083    0.90160    0.15709    1.000
    H74      H        0.51130    0.78200    0.15990    1.000
    C57      C        0.52681    0.97370    0.10702    1.000
    H75      H        0.53700    0.87060    0.08560    1.000
    H76      H        0.54860    0.08360    0.10280    1.000
    C58      C        0.39010    0.47450    0.94167    1.000
    H77      H        0.40080    0.40140    0.91400    1.000
    H78      H        0.36660    0.39490    0.95850    1.000
    C59      C        0.36585    0.66170    0.92529    1.000
    H79      H        0.38920    0.73200    0.90530    1.000
    C60      C        0.35549    0.79170    0.96853    1.000
    H80      H        0.34480    0.91920    0.95760    1.000
    H81      H        0.32930    0.73430    0.98680    1.000
    C61      C        0.29412    0.07600    0.27165    1.000
    C62      C        0.58237    0.85130    0.17016    1.000
    C63      C        0.32040    0.63300    0.89605    1.000
    N13      N        0.41180    0.44370    0.14989    1.000
    N14      N        0.43588    0.38910    0.06940    1.000
    N15      N        0.38854    0.66960    0.08996    1.000
    N16      N        0.45752    0.17640    0.12858    1.000
    N17      N        0.41809    0.62980    0.01443    1.000
    N18      N        0.36361    0.71060    0.16738    1.000
    O13      O        0.25549    0.06840    0.29521    1.000
    O14      O        0.32411    0.21340    0.27880    1.000
    O15      O        0.61704    0.90890    0.14792    1.000
    O16      O        0.58613    0.74530    0.20890    1.000
    O17      O        0.29868    0.78320    0.88155    1.000
    O18      O        0.30416    0.46780    0.88965    1.000
    Sr3      Sr       0.28646    0.36426    0.35660    1.000
    C64      C        0.06582    0.66000    0.61558    1.000
    C65      C        0.11130    0.39830    0.63457    1.000
    C66      C        0.08590    0.43900    0.55918    1.000
    C67      C        0.06680    0.48900    0.47396    1.000
    H82      H        0.05390    0.61280    0.48510    1.000
    H83      H        0.04150    0.42180    0.45650    1.000
    C68      C        0.10140    0.18270    0.50010    1.000
    H84      H        0.07670    0.10890    0.48340    1.000
    H85      H        0.11070    0.10880    0.52810    1.000
    C69      C        0.02422    0.96310    0.59390    1.000
    H86      H        0.02410    0.90360    0.56260    1.000
    H87      H        0.04530    0.07660    0.59290    1.000
    C70      C        0.04148    0.89190    0.67766    1.000
    H88      H        0.06250    0.00480    0.68110    1.000
    H89      H        0.05320    0.78960    0.69860    1.000
    C71      C        0.14670    0.37420    0.71434    1.000
    H90      H        0.11960    0.45510    0.72420    1.000
    H91      H        0.17520    0.45670    0.71230    1.000
    C72      C        0.17200    0.14620    0.65055    1.000
    H92      H        0.20230    0.21230    0.64370    1.000
    H93      H        0.16050    0.08700    0.62130    1.000
    C73      C        0.15511    0.21380    0.75092    1.000
    H94      H        0.16380    0.27250    0.78110    1.000
    H95      H        0.12540    0.14020    0.75540    1.000
    C74      C        0.18082    0.98620    0.68762    1.000
    H96      H        0.15160    0.90920    0.69160    1.000
    H97      H        0.20630    0.89970    0.67670    1.000
    C75      C        0.19522    0.07590    0.73517    1.000
    H98      H        0.22460    0.15300    0.73030    1.000
    C76      C        0.98973    0.94690    0.69113    1.000
    H99      H        0.96960    0.83070    0.69050    1.000
    H100     H        0.98930    0.99890    0.72320    1.000
    C77      C        0.96917    0.09840    0.65709    1.000
    H101     H        0.98870    0.21800    0.65990    1.000
    C78      C        0.97319    0.02630    0.60702    1.000
    H102     H        0.96300    0.12940    0.58560    1.000
    H103     H        0.95140    0.91640    0.60280    1.000
    C79      C        0.10990    0.52550    0.44167    1.000
    H104     H        0.09920    0.59860    0.41400    1.000
    H105     H        0.13340    0.60510    0.45850    1.000
    C80      C        0.13415    0.33830    0.42529    1.000
    H106     H        0.11080    0.26800    0.40530    1.000
    C81      C        0.14451    0.20830    0.46853    1.000
    H107     H        0.15520    0.08080    0.45760    1.000
    H108     H        0.17070    0.26570    0.48680    1.000
    C82      C        0.20588    0.92400    0.77165    1.000
    C83      C        0.91763    0.14870    0.67016    1.000
    C84      C        0.17960    0.36700    0.39605    1.000
    N19      N        0.08820    0.55630    0.64989    1.000
    N20      N        0.06412    0.61090    0.56940    1.000
    N21      N        0.11146    0.33040    0.58996    1.000
    N22      N        0.04248    0.82360    0.62858    1.000
    N23      N        0.08191    0.37020    0.51443    1.000
    N24      N        0.13639    0.28940    0.66738    1.000
    O19      O        0.24451    0.93160    0.79521    1.000
    O20      O        0.17589    0.78660    0.77880    1.000
    O21      O        0.88296    0.09110    0.64792    1.000
    O22      O        0.91387    0.25470    0.70890    1.000
    O23      O        0.20132    0.21680    0.38155    1.000
    O24      O        0.19584    0.53220    0.38965    1.000
    Sr4      Sr       0.21354    0.63574    0.85660    1.000
    C85      C        0.43418    0.16000    0.61558    1.000
    C86      C        0.38870    0.89830    0.63457    1.000
    C87      C        0.41410    0.93900    0.55918    1.000
    C88      C        0.43320    0.98900    0.47396    1.000
    H109     H        0.44610    0.11280    0.48510    1.000
    H110     H        0.45850    0.92180    0.45650    1.000
    C89      C        0.39860    0.68270    0.50010    1.000
    H111     H        0.42330    0.60890    0.48340    1.000
    H112     H        0.38930    0.60880    0.52810    1.000
    C90      C        0.47578    0.46310    0.59390    1.000
    H113     H        0.47590    0.40360    0.56260    1.000
    H114     H        0.45470    0.57660    0.59290    1.000
    C91      C        0.45852    0.39190    0.67766    1.000
    H115     H        0.43750    0.50480    0.68110    1.000
    H116     H        0.44680    0.28960    0.69860    1.000
    C92      C        0.35330    0.87420    0.71434    1.000
    H117     H        0.38040    0.95510    0.72420    1.000
    H118     H        0.32480    0.95670    0.71230    1.000
    C93      C        0.32800    0.64620    0.65055    1.000
    H119     H        0.29770    0.71230    0.64370    1.000
    H120     H        0.33950    0.58700    0.62130    1.000
    C94      C        0.34489    0.71380    0.75092    1.000
    H121     H        0.33620    0.77250    0.78110    1.000
    H122     H        0.37460    0.64020    0.75540    1.000
    C95      C        0.31918    0.48620    0.68762    1.000
    H123     H        0.34840    0.40920    0.69160    1.000
    H124     H        0.29370    0.39970    0.67670    1.000
    C96      C        0.30478    0.57590    0.73517    1.000
    H125     H        0.27540    0.65300    0.73030    1.000
    C97      C        0.51027    0.44690    0.69113    1.000
    H126     H        0.53040    0.33070    0.69050    1.000
    H127     H        0.51070    0.49890    0.72320    1.000
    C98      C        0.53083    0.59840    0.65709    1.000
    H128     H        0.51130    0.71800    0.65990    1.000
    C99      C        0.52681    0.52630    0.60702    1.000
    H129     H        0.53700    0.62940    0.58560    1.000
    H130     H        0.54860    0.41640    0.60280    1.000
    C100     C        0.39010    0.02550    0.44167    1.000
    H131     H        0.40080    0.09860    0.41400    1.000
    H132     H        0.36660    0.10510    0.45850    1.000
    C101     C        0.36585    0.83830    0.42529    1.000
    H133     H        0.38920    0.76800    0.40530    1.000
    C102     C        0.35549    0.70830    0.46853    1.000
    H134     H        0.34480    0.58080    0.45760    1.000
    H135     H        0.32930    0.76570    0.48680    1.000
    C103     C        0.29412    0.42400    0.77165    1.000
    C104     C        0.58237    0.64870    0.67016    1.000
    C105     C        0.32040    0.86700    0.39605    1.000
    N25      N        0.41180    0.05630    0.64989    1.000
    N26      N        0.43588    0.11090    0.56940    1.000
    N27      N        0.38854    0.83040    0.58996    1.000
    N28      N        0.45752    0.32360    0.62858    1.000
    N29      N        0.41809    0.87020    0.51443    1.000
    N30      N        0.36361    0.78940    0.66738    1.000
    O25      O        0.25549    0.43160    0.79521    1.000
    O26      O        0.32411    0.28660    0.77880    1.000
    O27      O        0.61704    0.59110    0.64792    1.000
    O28      O        0.58613    0.75470    0.70890    1.000
    O29      O        0.29868    0.71680    0.38155    1.000
    O30      O        0.30416    0.03220    0.38965    1.000
    Sr5      Sr       0.28646    0.13574    0.85660    1.000
    C106     C        0.06582    0.84000    0.11558    1.000
    C107     C        0.11130    0.10170    0.13457    1.000
    C108     C        0.08590    0.06100    0.05918    1.000
    C109     C        0.06680    0.01100    0.97396    1.000
    H136     H        0.05390    0.88720    0.98510    1.000
    H137     H        0.04150    0.07820    0.95650    1.000
    C110     C        0.10140    0.31730    0.00010    1.000
    H138     H        0.07670    0.39110    0.98340    1.000
    H139     H        0.11070    0.39120    0.02810    1.000
    C111     C        0.02422    0.53690    0.09390    1.000
    H140     H        0.02410    0.59640    0.06260    1.000
    H141     H        0.04530    0.42340    0.09290    1.000
    C112     C        0.04148    0.60810    0.17766    1.000
    H142     H        0.06250    0.49520    0.18110    1.000
    H143     H        0.05320    0.71040    0.19860    1.000
    C113     C        0.14670    0.12580    0.21434    1.000
    H144     H        0.11960    0.04490    0.22420    1.000
    H145     H        0.17520    0.04330    0.21230    1.000
    C114     C        0.17200    0.35380    0.15055    1.000
    H146     H        0.20230    0.28770    0.14370    1.000
    H147     H        0.16050    0.41300    0.12130    1.000
    C115     C        0.15511    0.28620    0.25092    1.000
    H148     H        0.16380    0.22750    0.28110    1.000
    H149     H        0.12540    0.35980    0.25540    1.000
    C116     C        0.18082    0.51380    0.18762    1.000
    H150     H        0.15160    0.59080    0.19160    1.000
    H151     H        0.20630    0.60030    0.17670    1.000
    C117     C        0.19522    0.42410    0.23517    1.000
    H152     H        0.22460    0.34700    0.23030    1.000
    C118     C        0.98973    0.55310    0.19113    1.000
    H153     H        0.96960    0.66930    0.19050    1.000
    H154     H        0.98930    0.50110    0.22320    1.000
    C119     C        0.96917    0.40160    0.15709    1.000
    H155     H        0.98870    0.28200    0.15990    1.000
    C120     C        0.97319    0.47370    0.10702    1.000
    H156     H        0.96300    0.37060    0.08560    1.000
    H157     H        0.95140    0.58360    0.10280    1.000
    C121     C        0.10990    0.97450    0.94167    1.000
    H158     H        0.09920    0.90140    0.91400    1.000
    H159     H        0.13340    0.89490    0.95850    1.000
    C122     C        0.13415    0.16170    0.92529    1.000
    H160     H        0.11080    0.23200    0.90530    1.000
    C123     C        0.14451    0.29170    0.96853    1.000
    H161     H        0.15520    0.41920    0.95760    1.000
    H162     H        0.17070    0.23430    0.98680    1.000
    C124     C        0.20588    0.57600    0.27165    1.000
    C125     C        0.91763    0.35130    0.17016    1.000
    C126     C        0.17960    0.13300    0.89605    1.000
    N31      N        0.08820    0.94370    0.14989    1.000
    N32      N        0.06412    0.88910    0.06940    1.000
    N33      N        0.11146    0.16960    0.08996    1.000
    N34      N        0.04248    0.67640    0.12858    1.000
    N35      N        0.08191    0.12980    0.01443    1.000
    N36      N        0.13639    0.21060    0.16738    1.000
    O31      O        0.24451    0.56840    0.29521    1.000
    O32      O        0.17589    0.71340    0.27880    1.000
    O33      O        0.88296    0.40890    0.14792    1.000
    O34      O        0.91387    0.24530    0.20890    1.000
    O35      O        0.20132    0.28320    0.88155    1.000
    O36      O        0.19584    0.96780    0.88965    1.000
    Sr6      Sr       0.21354    0.86426    0.35660    1.000
    C127     C        0.56582    0.66000    0.88442    1.000
    C128     C        0.61130    0.39830    0.86543    1.000
    C129     C        0.58590    0.43900    0.94082    1.000
    C130     C        0.56680    0.48900    0.02604    1.000
    H163     H        0.55390    0.61280    0.01490    1.000
    H164     H        0.54150    0.42180    0.04350    1.000
    C131     C        0.60140    0.18270    0.99990    1.000
    H165     H        0.57670    0.10890    0.01660    1.000
    H166     H        0.61070    0.10880    0.97190    1.000
    C132     C        0.52422    0.96310    0.90610    1.000
    H167     H        0.52410    0.90360    0.93740    1.000
    H168     H        0.54530    0.07660    0.90710    1.000
    C133     C        0.54148    0.89190    0.82234    1.000
    H169     H        0.56250    0.00480    0.81890    1.000
    H170     H        0.55320    0.78960    0.80140    1.000
    C134     C        0.64670    0.37420    0.78566    1.000
    H171     H        0.61960    0.45510    0.77580    1.000
    H172     H        0.67520    0.45670    0.78770    1.000
    C135     C        0.67200    0.14620    0.84945    1.000
    H173     H        0.70230    0.21230    0.85630    1.000
    H174     H        0.66050    0.08700    0.87870    1.000
    C136     C        0.65511    0.21380    0.74908    1.000
    H175     H        0.66380    0.27250    0.71890    1.000
    H176     H        0.62540    0.14020    0.74460    1.000
    C137     C        0.68082    0.98620    0.81238    1.000
    H177     H        0.65160    0.90920    0.80840    1.000
    H178     H        0.70630    0.89970    0.82330    1.000
    C138     C        0.69522    0.07590    0.76483    1.000
    H179     H        0.72460    0.15300    0.76970    1.000
    C139     C        0.48973    0.94690    0.80887    1.000
    H180     H        0.46960    0.83070    0.80950    1.000
    H181     H        0.48930    0.99890    0.77680    1.000
    C140     C        0.46917    0.09840    0.84291    1.000
    H182     H        0.48870    0.21800    0.84010    1.000
    C141     C        0.47319    0.02630    0.89298    1.000
    H183     H        0.46300    0.12940    0.91440    1.000
    H184     H        0.45140    0.91640    0.89720    1.000
    C142     C        0.60990    0.52550    0.05833    1.000
    H185     H        0.59920    0.59860    0.08600    1.000
    H186     H        0.63340    0.60510    0.04150    1.000
    C143     C        0.63415    0.33830    0.07471    1.000
    H187     H        0.61080    0.26800    0.09470    1.000
    C144     C        0.64451    0.20830    0.03147    1.000
    H188     H        0.65520    0.08080    0.04240    1.000
    H189     H        0.67070    0.26570    0.01320    1.000
    C145     C        0.70588    0.92400    0.72835    1.000
    C146     C        0.41763    0.14870    0.82984    1.000
    C147     C        0.67960    0.36700    0.10395    1.000
    N37      N        0.58820    0.55630    0.85011    1.000
    N38      N        0.56412    0.61090    0.93060    1.000
    N39      N        0.61146    0.33040    0.91004    1.000
    N40      N        0.54248    0.82360    0.87142    1.000
    N41      N        0.58191    0.37020    0.98557    1.000
    N42      N        0.63639    0.28940    0.83262    1.000
    O37      O        0.74451    0.93160    0.70479    1.000
    O38      O        0.67589    0.78660    0.72120    1.000
    O39      O        0.38296    0.09110    0.85208    1.000
    O40      O        0.41387    0.25470    0.79110    1.000
    O41      O        0.70132    0.21680    0.11845    1.000
    O42      O        0.69584    0.53220    0.11035    1.000
    Sr7      Sr       0.71354    0.63574    0.64340    1.000
    C148     C        0.93418    0.34000    0.38442    1.000
    C149     C        0.88870    0.60170    0.36543    1.000
    C150     C        0.91410    0.56100    0.44082    1.000
    C151     C        0.93320    0.51100    0.52604    1.000
    H190     H        0.94610    0.38720    0.51490    1.000
    H191     H        0.95850    0.57820    0.54350    1.000
    C152     C        0.89860    0.81730    0.49990    1.000
    H192     H        0.92330    0.89110    0.51660    1.000
    H193     H        0.88930    0.89120    0.47190    1.000
    C153     C        0.97578    0.03690    0.40610    1.000
    H194     H        0.97590    0.09640    0.43740    1.000
    H195     H        0.95470    0.92340    0.40710    1.000
    C154     C        0.95852    0.10810    0.32234    1.000
    H196     H        0.93750    0.99520    0.31890    1.000
    H197     H        0.94680    0.21040    0.30140    1.000
    C155     C        0.85330    0.62580    0.28566    1.000
    H198     H        0.88040    0.54490    0.27580    1.000
    H199     H        0.82480    0.54330    0.28770    1.000
    C156     C        0.82800    0.85380    0.34945    1.000
    H200     H        0.79770    0.78770    0.35630    1.000
    H201     H        0.83950    0.91300    0.37870    1.000
    C157     C        0.84489    0.78620    0.24908    1.000
    H202     H        0.83620    0.72750    0.21890    1.000
    H203     H        0.87460    0.85980    0.24460    1.000
    C158     C        0.81918    0.01380    0.31238    1.000
    H204     H        0.84840    0.09080    0.30840    1.000
    H205     H        0.79370    0.10030    0.32330    1.000
    C159     C        0.80478    0.92410    0.26483    1.000
    H206     H        0.77540    0.84700    0.26970    1.000
    C160     C        0.01027    0.05310    0.30887    1.000
    H207     H        0.03040    0.16930    0.30950    1.000
    H208     H        0.01070    0.00110    0.27680    1.000
    C161     C        0.03083    0.90160    0.34291    1.000
    H209     H        0.01130    0.78200    0.34010    1.000
    C162     C        0.02681    0.97370    0.39298    1.000
    H210     H        0.03700    0.87060    0.41440    1.000
    H211     H        0.04860    0.08360    0.39720    1.000
    C163     C        0.89010    0.47450    0.55833    1.000
    H212     H        0.90080    0.40140    0.58600    1.000
    H213     H        0.86660    0.39490    0.54150    1.000
    C164     C        0.86585    0.66170    0.57471    1.000
    H214     H        0.88920    0.73200    0.59470    1.000
    C165     C        0.85549    0.79170    0.53147    1.000
    H215     H        0.84480    0.91920    0.54240    1.000
    H216     H        0.82930    0.73430    0.51320    1.000
    C166     C        0.79412    0.07600    0.22835    1.000
    C167     C        0.08237    0.85130    0.32984    1.000
    C168     C        0.82040    0.63300    0.60395    1.000
    N43      N        0.91180    0.44370    0.35011    1.000
    N44      N        0.93588    0.38910    0.43060    1.000
    N45      N        0.88854    0.66960    0.41004    1.000
    N46      N        0.95752    0.17640    0.37142    1.000
    N47      N        0.91809    0.62980    0.48557    1.000
    N48      N        0.86361    0.71060    0.33262    1.000
    O43      O        0.75549    0.06840    0.20479    1.000
    O44      O        0.82411    0.21340    0.22120    1.000
    O45      O        0.11704    0.90890    0.35208    1.000
    O46      O        0.08613    0.74530    0.29110    1.000
    O47      O        0.79868    0.78320    0.61845    1.000
    O48      O        0.80416    0.46780    0.61035    1.000
    Sr8      Sr       0.78645    0.36426    0.14340    1.000
