# CIF file generated by openbabel 3.1.0, see https://openbabel.org
data_I
_chemical_name_common 'image0'
_cell_length_a 27.1344
_cell_length_b 27.1344
_cell_length_c 27.1344
_cell_angle_alpha 90
_cell_angle_beta 90
_cell_angle_gamma 90
_space_group_name_H-M_alt 'P 1'
_space_group_name_Hall 'P 1'
loop_
    _symmetry_equiv_pos_as_xyz
    x,y,z
loop_
    _atom_site_label
    _atom_site_type_symbol
    _atom_site_fract_x
    _atom_site_fract_y
    _atom_site_fract_z
    _atom_site_occupancy
    In1      In       0.92946    0.52672    0.00603    1.000
    O1       O        0.00139    0.55572    0.02685    1.000
    O2       O        0.86260    0.49650    0.97780    1.000
    O3       O        0.84370    0.45690    0.04380    1.000
    O4       O        0.98485    0.61104    0.93690    1.000
    O5       O        0.90850    0.59050    0.96600    1.000
    C1       C        0.83950    0.46570    0.99870    1.000
    C2       C        0.78980    0.45280    0.97990    1.000
    C3       C        0.76180    0.42160    0.01040    1.000
    H1       H        0.77280    0.40570    0.03870    1.000
    C4       C        0.70830    0.41840    0.98820    1.000
    H2       H        0.68130    0.41290    0.00870    1.000
    C5       C        0.70130    0.42420    0.93570    1.000
    C6       C        0.73170    0.45320    0.91120    1.000
    H3       H        0.72380    0.46380    0.87960    1.000
    C7       C        0.77570    0.46780    0.93330    1.000
    H4       H        0.79650    0.48870    0.91580    1.000
    C8       C        0.65500    0.40680    0.91070    1.000
    C9       C        0.63670    0.42900    0.87190    1.000
    H5       H        0.65180    0.45770    0.86090    1.000
    C10      C        0.94020    0.61790    0.93870    1.000
    C11      C        0.91820    0.66490    0.92000    1.000
    C12      C        0.87020    0.67570    0.92510    1.000
    H6       H        0.84970    0.65300    0.94070    1.000
    C13      C        0.85140    0.71640    0.90920    1.000
    H7       H        0.81870    0.72440    0.91600    1.000
    C14      C        0.88170    0.74900    0.88090    1.000
    C15      C        0.92910    0.73880    0.87710    1.000
    H8       H        0.95070    0.76130    0.86270    1.000
    C16      C        0.94500    0.69720    0.89390    1.000
    H9       H        0.97760    0.68890    0.88730    1.000
    C17      C        0.86090    0.79870    0.86010    1.000
    C18      C        0.81900    0.81960    0.87920    1.000
    H10      H        0.80400    0.80470    0.90610    1.000
    C19      C        0.87000    0.62370    0.14810    1.000
    H11      H        0.88650    0.63560    0.12060    1.000
    O6       O        0.88610    0.49160    0.12370    1.000
    C20      C        0.87690    0.54110    0.10640    1.000
    C21      C        0.81670    0.67750    0.25660    1.000
    C22      C        0.84420    0.71810    0.27690    1.000
    H12      H        0.87480    0.72720    0.26440    1.000
    C23      C        0.86150    0.57170    0.14650    1.000
    C24      C        0.83680    0.54600    0.18510    1.000
    H13      H        0.83000    0.51240    0.18650    1.000
    C25      C        0.85820    0.66140    0.18380    1.000
    H14      H        0.86490    0.69500    0.18250    1.000
    C26      C        0.83380    0.63430    0.22120    1.000
    C27      C        0.82460    0.58240    0.22110    1.000
    H15      H        0.80810    0.57060    0.24880    1.000
    O7       O        0.89650    0.56200    0.06800    1.000
    In2      In       0.57054    0.47328    0.50603    1.000
    O8       O        0.49861    0.44428    0.52685    1.000
    O9       O        0.63740    0.50350    0.47780    1.000
    O10      O        0.65630    0.54310    0.54380    1.000
    O11      O        0.51515    0.38896    0.43690    1.000
    O12      O        0.59150    0.40950    0.46600    1.000
    C28      C        0.66050    0.53430    0.49870    1.000
    C29      C        0.71020    0.54720    0.47990    1.000
    C30      C        0.73820    0.57840    0.51040    1.000
    H16      H        0.72720    0.59430    0.53870    1.000
    C31      C        0.79170    0.58160    0.48820    1.000
    H17      H        0.81870    0.58710    0.50870    1.000
    C32      C        0.79870    0.57580    0.43570    1.000
    C33      C        0.76830    0.54680    0.41120    1.000
    H18      H        0.77620    0.53620    0.37960    1.000
    C34      C        0.72430    0.53220    0.43330    1.000
    H19      H        0.70350    0.51130    0.41580    1.000
    C35      C        0.84500    0.59320    0.41070    1.000
    C36      C        0.86330    0.57100    0.37190    1.000
    H20      H        0.84820    0.54230    0.36090    1.000
    C37      C        0.55980    0.38210    0.43870    1.000
    C38      C        0.58180    0.33510    0.42000    1.000
    C39      C        0.62980    0.32430    0.42510    1.000
    H21      H        0.65030    0.34700    0.44070    1.000
    C40      C        0.64860    0.28360    0.40920    1.000
    H22      H        0.68130    0.27560    0.41600    1.000
    C41      C        0.61830    0.25100    0.38090    1.000
    C42      C        0.57090    0.26120    0.37710    1.000
    H23      H        0.54930    0.23870    0.36270    1.000
    C43      C        0.55500    0.30280    0.39390    1.000
    H24      H        0.52240    0.31110    0.38730    1.000
    C44      C        0.63910    0.20130    0.36010    1.000
    C45      C        0.68100    0.18040    0.37920    1.000
    H25      H        0.69600    0.19530    0.40610    1.000
    C46      C        0.63000    0.37630    0.64810    1.000
    H26      H        0.61350    0.36440    0.62060    1.000
    O13      O        0.61390    0.50840    0.62370    1.000
    C47      C        0.62310    0.45890    0.60640    1.000
    C48      C        0.68330    0.32250    0.75660    1.000
    C49      C        0.65580    0.28190    0.77690    1.000
    H27      H        0.62520    0.27280    0.76440    1.000
    C50      C        0.63850    0.42830    0.64650    1.000
    C51      C        0.66320    0.45400    0.68510    1.000
    H28      H        0.67000    0.48760    0.68650    1.000
    C52      C        0.64180    0.33860    0.68380    1.000
    H29      H        0.63510    0.30500    0.68250    1.000
    C53      C        0.66620    0.36570    0.72120    1.000
    C54      C        0.67540    0.41760    0.72110    1.000
    H30      H        0.69190    0.42940    0.74880    1.000
    O14      O        0.60350    0.43800    0.56800    1.000
    In3      In       0.07054    0.02672    0.49397    1.000
    O15      O        0.99861    0.05572    0.47315    1.000
    O16      O        0.13740    0.99650    0.52220    1.000
    O17      O        0.15630    0.95690    0.45620    1.000
    O18      O        0.01515    0.11104    0.56310    1.000
    O19      O        0.09150    0.09050    0.53400    1.000
    C55      C        0.16050    0.96570    0.50130    1.000
    C56      C        0.21020    0.95280    0.52010    1.000
    C57      C        0.23820    0.92160    0.48960    1.000
    H31      H        0.22720    0.90570    0.46130    1.000
    C58      C        0.29170    0.91840    0.51180    1.000
    H32      H        0.31870    0.91290    0.49130    1.000
    C59      C        0.29870    0.92420    0.56430    1.000
    C60      C        0.26830    0.95320    0.58880    1.000
    H33      H        0.27620    0.96380    0.62040    1.000
    C61      C        0.22430    0.96780    0.56670    1.000
    H34      H        0.20350    0.98870    0.58420    1.000
    C62      C        0.34500    0.90680    0.58930    1.000
    C63      C        0.36330    0.92900    0.62810    1.000
    H35      H        0.34820    0.95770    0.63910    1.000
    C64      C        0.05980    0.11790    0.56130    1.000
    C65      C        0.08180    0.16490    0.58000    1.000
    C66      C        0.12980    0.17570    0.57490    1.000
    H36      H        0.15030    0.15300    0.55930    1.000
    C67      C        0.14860    0.21640    0.59080    1.000
    H37      H        0.18130    0.22440    0.58400    1.000
    C68      C        0.11830    0.24900    0.61910    1.000
    C69      C        0.07090    0.23880    0.62290    1.000
    H38      H        0.04930    0.26130    0.63730    1.000
    C70      C        0.05500    0.19720    0.60610    1.000
    H39      H        0.02240    0.18890    0.61270    1.000
    C71      C        0.13910    0.29870    0.63990    1.000
    C72      C        0.18100    0.31960    0.62080    1.000
    H40      H        0.19600    0.30470    0.59390    1.000
    C73      C        0.13000    0.12370    0.35190    1.000
    H41      H        0.11350    0.13560    0.37940    1.000
    O20      O        0.11390    0.99160    0.37630    1.000
    C74      C        0.12310    0.04110    0.39360    1.000
    C75      C        0.18330    0.17750    0.24340    1.000
    C76      C        0.15580    0.21810    0.22310    1.000
    H42      H        0.12520    0.22720    0.23560    1.000
    C77      C        0.13850    0.07170    0.35350    1.000
    C78      C        0.16320    0.04600    0.31490    1.000
    H43      H        0.17000    0.01240    0.31350    1.000
    C79      C        0.14180    0.16140    0.31620    1.000
    H44      H        0.13510    0.19500    0.31750    1.000
    C80      C        0.16620    0.13430    0.27880    1.000
    C81      C        0.17540    0.08240    0.27890    1.000
    H45      H        0.19190    0.07060    0.25120    1.000
    O21      O        0.10350    0.06200    0.43200    1.000
    In4      In       0.42946    0.97328    0.99397    1.000
    O22      O        0.50139    0.94428    0.97315    1.000
    O23      O        0.36260    0.00350    0.02220    1.000
    O24      O        0.34370    0.04310    0.95620    1.000
    O25      O        0.48485    0.88896    0.06310    1.000
    O26      O        0.40850    0.90950    0.03400    1.000
    C82      C        0.33950    0.03430    0.00130    1.000
    C83      C        0.28980    0.04720    0.02010    1.000
    C84      C        0.26180    0.07840    0.98960    1.000
    H46      H        0.27280    0.09430    0.96130    1.000
    C85      C        0.20830    0.08160    0.01180    1.000
    H47      H        0.18130    0.08710    0.99130    1.000
    C86      C        0.20130    0.07580    0.06430    1.000
    C87      C        0.23170    0.04680    0.08880    1.000
    H48      H        0.22380    0.03620    0.12040    1.000
    C88      C        0.27570    0.03220    0.06670    1.000
    H49      H        0.29650    0.01130    0.08420    1.000
    C89      C        0.15500    0.09320    0.08930    1.000
    C90      C        0.13670    0.07100    0.12810    1.000
    H50      H        0.15180    0.04230    0.13910    1.000
    C91      C        0.44020    0.88210    0.06130    1.000
    C92      C        0.41820    0.83510    0.08000    1.000
    C93      C        0.37020    0.82430    0.07490    1.000
    H51      H        0.34970    0.84700    0.05930    1.000
    C94      C        0.35140    0.78360    0.09080    1.000
    H52      H        0.31870    0.77560    0.08400    1.000
    C95      C        0.38170    0.75100    0.11910    1.000
    C96      C        0.42910    0.76120    0.12290    1.000
    H53      H        0.45070    0.73870    0.13730    1.000
    C97      C        0.44500    0.80280    0.10610    1.000
    H54      H        0.47760    0.81110    0.11270    1.000
    C98      C        0.36090    0.70130    0.13990    1.000
    C99      C        0.31900    0.68040    0.12080    1.000
    H55      H        0.30400    0.69530    0.09390    1.000
    C100     C        0.37000    0.87630    0.85190    1.000
    H56      H        0.38650    0.86440    0.87940    1.000
    O27      O        0.38610    0.00840    0.87630    1.000
    C101     C        0.37690    0.95890    0.89360    1.000
    C102     C        0.31670    0.82250    0.74340    1.000
    C103     C        0.34420    0.78190    0.72310    1.000
    H57      H        0.37480    0.77280    0.73560    1.000
    C104     C        0.36150    0.92830    0.85350    1.000
    C105     C        0.33680    0.95400    0.81490    1.000
    H58      H        0.33000    0.98760    0.81350    1.000
    C106     C        0.35820    0.83860    0.81620    1.000
    H59      H        0.36490    0.80500    0.81750    1.000
    C107     C        0.33380    0.86570    0.77880    1.000
    C108     C        0.32460    0.91760    0.77890    1.000
    H60      H        0.30810    0.92940    0.75120    1.000
    O28      O        0.39650    0.93800    0.93200    1.000
    In5      In       0.00603    0.92946    0.52672    1.000
    O29      O        0.02685    0.00139    0.55572    1.000
    O30      O        0.97780    0.86260    0.49650    1.000
    O31      O        0.04380    0.84370    0.45690    1.000
    O32      O        0.93690    0.98485    0.61104    1.000
    O33      O        0.96600    0.90850    0.59050    1.000
    C109     C        0.99870    0.83950    0.46570    1.000
    C110     C        0.97990    0.78980    0.45280    1.000
    C111     C        0.01040    0.76180    0.42160    1.000
    H61      H        0.03870    0.77280    0.40570    1.000
    C112     C        0.98820    0.70830    0.41840    1.000
    H62      H        0.00870    0.68130    0.41290    1.000
    C113     C        0.93570    0.70130    0.42420    1.000
    C114     C        0.91120    0.73170    0.45320    1.000
    H63      H        0.87960    0.72380    0.46380    1.000
    C115     C        0.93330    0.77570    0.46780    1.000
    H64      H        0.91580    0.79650    0.48870    1.000
    C116     C        0.91070    0.65500    0.40680    1.000
    C117     C        0.87190    0.63670    0.42900    1.000
    H65      H        0.86090    0.65180    0.45770    1.000
    C118     C        0.93870    0.94020    0.61790    1.000
    C119     C        0.92000    0.91820    0.66490    1.000
    C120     C        0.92510    0.87020    0.67570    1.000
    H66      H        0.94070    0.84970    0.65300    1.000
    C121     C        0.90920    0.85140    0.71640    1.000
    H67      H        0.91600    0.81870    0.72440    1.000
    C122     C        0.88090    0.88170    0.74900    1.000
    C123     C        0.87710    0.92910    0.73880    1.000
    H68      H        0.86270    0.95070    0.76130    1.000
    C124     C        0.89390    0.94500    0.69720    1.000
    H69      H        0.88730    0.97760    0.68890    1.000
    C125     C        0.86010    0.86090    0.79870    1.000
    C126     C        0.87920    0.81900    0.81960    1.000
    H70      H        0.90610    0.80400    0.80470    1.000
    C127     C        0.14810    0.87000    0.62370    1.000
    H71      H        0.12060    0.88650    0.63560    1.000
    O34      O        0.12370    0.88610    0.49160    1.000
    C128     C        0.10640    0.87690    0.54110    1.000
    C129     C        0.25660    0.81670    0.67750    1.000
    C130     C        0.27690    0.84420    0.71810    1.000
    H72      H        0.26440    0.87480    0.72720    1.000
    C131     C        0.14650    0.86150    0.57170    1.000
    C132     C        0.18510    0.83680    0.54600    1.000
    H73      H        0.18650    0.83000    0.51240    1.000
    C133     C        0.18380    0.85820    0.66140    1.000
    H74      H        0.18250    0.86490    0.69500    1.000
    C134     C        0.22120    0.83380    0.63430    1.000
    C135     C        0.22110    0.82460    0.58240    1.000
    H75      H        0.24880    0.80810    0.57060    1.000
    O35      O        0.06800    0.89650    0.56200    1.000
    In6      In       0.50603    0.57054    0.47328    1.000
    O36      O        0.52685    0.49861    0.44428    1.000
    O37      O        0.47780    0.63740    0.50350    1.000
    O38      O        0.54380    0.65630    0.54310    1.000
    O39      O        0.43690    0.51515    0.38896    1.000
    O40      O        0.46600    0.59150    0.40950    1.000
    C136     C        0.49870    0.66050    0.53430    1.000
    C137     C        0.47990    0.71020    0.54720    1.000
    C138     C        0.51040    0.73820    0.57840    1.000
    H76      H        0.53870    0.72720    0.59430    1.000
    C139     C        0.48820    0.79170    0.58160    1.000
    H77      H        0.50870    0.81870    0.58710    1.000
    C140     C        0.43570    0.79870    0.57580    1.000
    C141     C        0.41120    0.76830    0.54680    1.000
    H78      H        0.37960    0.77620    0.53620    1.000
    C142     C        0.43330    0.72430    0.53220    1.000
    H79      H        0.41580    0.70350    0.51130    1.000
    C143     C        0.41070    0.84500    0.59320    1.000
    C144     C        0.37190    0.86330    0.57100    1.000
    H80      H        0.36090    0.84820    0.54230    1.000
    C145     C        0.43870    0.55980    0.38210    1.000
    C146     C        0.42000    0.58180    0.33510    1.000
    C147     C        0.42510    0.62980    0.32430    1.000
    H81      H        0.44070    0.65030    0.34700    1.000
    C148     C        0.40920    0.64860    0.28360    1.000
    H82      H        0.41600    0.68130    0.27560    1.000
    C149     C        0.38090    0.61830    0.25100    1.000
    C150     C        0.37710    0.57090    0.26120    1.000
    H83      H        0.36270    0.54930    0.23870    1.000
    C151     C        0.39390    0.55500    0.30280    1.000
    H84      H        0.38730    0.52240    0.31110    1.000
    C152     C        0.36010    0.63910    0.20130    1.000
    C153     C        0.37920    0.68100    0.18040    1.000
    H85      H        0.40610    0.69600    0.19530    1.000
    C154     C        0.64810    0.63000    0.37630    1.000
    H86      H        0.62060    0.61350    0.36440    1.000
    O41      O        0.62370    0.61390    0.50840    1.000
    C155     C        0.60640    0.62310    0.45890    1.000
    C156     C        0.75660    0.68330    0.32250    1.000
    C157     C        0.77690    0.65580    0.28190    1.000
    H87      H        0.76440    0.62520    0.27280    1.000
    C158     C        0.64650    0.63850    0.42830    1.000
    C159     C        0.68510    0.66320    0.45400    1.000
    H88      H        0.68650    0.67000    0.48760    1.000
    C160     C        0.68380    0.64180    0.33860    1.000
    H89      H        0.68250    0.63510    0.30500    1.000
    C161     C        0.72120    0.66620    0.36570    1.000
    C162     C        0.72110    0.67540    0.41760    1.000
    H90      H        0.74880    0.69190    0.42940    1.000
    O42      O        0.56800    0.60350    0.43800    1.000
    In7      In       0.49397    0.07054    0.02672    1.000
    O43      O        0.47315    0.99861    0.05572    1.000
    O44      O        0.52220    0.13740    0.99650    1.000
    O45      O        0.45620    0.15630    0.95690    1.000
    O46      O        0.56310    0.01515    0.11104    1.000
    O47      O        0.53400    0.09150    0.09050    1.000
    C163     C        0.50130    0.16050    0.96570    1.000
    C164     C        0.52010    0.21020    0.95280    1.000
    C165     C        0.48960    0.23820    0.92160    1.000
    H91      H        0.46130    0.22720    0.90570    1.000
    C166     C        0.51180    0.29170    0.91840    1.000
    H92      H        0.49130    0.31870    0.91290    1.000
    C167     C        0.56430    0.29870    0.92420    1.000
    C168     C        0.58880    0.26830    0.95320    1.000
    H93      H        0.62040    0.27620    0.96380    1.000
    C169     C        0.56670    0.22430    0.96780    1.000
    H94      H        0.58420    0.20350    0.98870    1.000
    C170     C        0.58930    0.34500    0.90680    1.000
    C171     C        0.62810    0.36330    0.92900    1.000
    H95      H        0.63910    0.34820    0.95770    1.000
    C172     C        0.56130    0.05980    0.11790    1.000
    C173     C        0.58000    0.08180    0.16490    1.000
    C174     C        0.57490    0.12980    0.17570    1.000
    H96      H        0.55930    0.15030    0.15300    1.000
    C175     C        0.59080    0.14860    0.21640    1.000
    H97      H        0.58400    0.18130    0.22440    1.000
    C176     C        0.61910    0.11830    0.24900    1.000
    C177     C        0.62290    0.07090    0.23880    1.000
    H98      H        0.63730    0.04930    0.26130    1.000
    C178     C        0.60610    0.05500    0.19720    1.000
    H99      H        0.61270    0.02240    0.18890    1.000
    C179     C        0.63990    0.13910    0.29870    1.000
    C180     C        0.62080    0.18100    0.31960    1.000
    H100     H        0.59390    0.19600    0.30470    1.000
    C181     C        0.35190    0.13000    0.12370    1.000
    H101     H        0.37940    0.11350    0.13560    1.000
    O48      O        0.37630    0.11390    0.99160    1.000
    C182     C        0.39360    0.12310    0.04110    1.000
    C183     C        0.24340    0.18330    0.17750    1.000
    C184     C        0.22310    0.15580    0.21810    1.000
    H102     H        0.23560    0.12520    0.22720    1.000
    C185     C        0.35350    0.13850    0.07170    1.000
    C186     C        0.31490    0.16320    0.04600    1.000
    H103     H        0.31350    0.17000    0.01240    1.000
    C187     C        0.31620    0.14180    0.16140    1.000
    H104     H        0.31750    0.13510    0.19500    1.000
    C188     C        0.27880    0.16620    0.13430    1.000
    C189     C        0.27890    0.17540    0.08240    1.000
    H105     H        0.25120    0.19190    0.07060    1.000
    O49      O        0.43200    0.10350    0.06200    1.000
    In8      In       0.99397    0.42946    0.97328    1.000
    O50      O        0.97315    0.50139    0.94428    1.000
    O51      O        0.02220    0.36260    0.00350    1.000
    O52      O        0.95620    0.34370    0.04310    1.000
    O53      O        0.06310    0.48485    0.88896    1.000
    O54      O        0.03400    0.40850    0.90950    1.000
    C190     C        0.00130    0.33950    0.03430    1.000
    C191     C        0.02010    0.28980    0.04720    1.000
    C192     C        0.98960    0.26180    0.07840    1.000
    H106     H        0.96130    0.27280    0.09430    1.000
    C193     C        0.01180    0.20830    0.08160    1.000
    H107     H        0.99130    0.18130    0.08710    1.000
    C194     C        0.06430    0.20130    0.07580    1.000
    C195     C        0.08880    0.23170    0.04680    1.000
    H108     H        0.12040    0.22380    0.03620    1.000
    C196     C        0.06670    0.27570    0.03220    1.000
    H109     H        0.08420    0.29650    0.01130    1.000
    C197     C        0.08930    0.15500    0.09320    1.000
    C198     C        0.12810    0.13670    0.07100    1.000
    H110     H        0.13910    0.15180    0.04230    1.000
    C199     C        0.06130    0.44020    0.88210    1.000
    C200     C        0.08000    0.41820    0.83510    1.000
    C201     C        0.07490    0.37020    0.82430    1.000
    H111     H        0.05930    0.34970    0.84700    1.000
    C202     C        0.09080    0.35140    0.78360    1.000
    H112     H        0.08400    0.31870    0.77560    1.000
    C203     C        0.11910    0.38170    0.75100    1.000
    C204     C        0.12290    0.42910    0.76120    1.000
    H113     H        0.13730    0.45070    0.73870    1.000
    C205     C        0.10610    0.44500    0.80280    1.000
    H114     H        0.11270    0.47760    0.81110    1.000
    C206     C        0.13990    0.36090    0.70130    1.000
    C207     C        0.12080    0.31900    0.68040    1.000
    H115     H        0.09390    0.30400    0.69530    1.000
    C208     C        0.85190    0.37000    0.87630    1.000
    H116     H        0.87940    0.38650    0.86440    1.000
    O55      O        0.87630    0.38610    0.00840    1.000
    C209     C        0.89360    0.37690    0.95890    1.000
    C210     C        0.74340    0.31670    0.82250    1.000
    C211     C        0.72310    0.34420    0.78190    1.000
    H117     H        0.73560    0.37480    0.77280    1.000
    C212     C        0.85350    0.36150    0.92830    1.000
    C213     C        0.81490    0.33680    0.95400    1.000
    H118     H        0.81350    0.33000    0.98760    1.000
    C214     C        0.81620    0.35820    0.83860    1.000
    H119     H        0.81750    0.36490    0.80500    1.000
    C215     C        0.77880    0.33380    0.86570    1.000
    C216     C        0.77890    0.32460    0.91760    1.000
    H120     H        0.75120    0.30810    0.92940    1.000
    O56      O        0.93200    0.39650    0.93800    1.000
    In9      In       0.52672    0.00603    0.92946    1.000
    O57      O        0.55572    0.02685    0.00139    1.000
    O58      O        0.49650    0.97780    0.86260    1.000
    O59      O        0.45690    0.04380    0.84370    1.000
    O60      O        0.61104    0.93690    0.98485    1.000
    O61      O        0.59050    0.96600    0.90850    1.000
    C217     C        0.46570    0.99870    0.83950    1.000
    C218     C        0.45280    0.97990    0.78980    1.000
    C219     C        0.42160    0.01040    0.76180    1.000
    H121     H        0.40570    0.03870    0.77280    1.000
    C220     C        0.41840    0.98820    0.70830    1.000
    H122     H        0.41290    0.00870    0.68130    1.000
    C221     C        0.42420    0.93570    0.70130    1.000
    C222     C        0.45320    0.91120    0.73170    1.000
    H123     H        0.46380    0.87960    0.72380    1.000
    C223     C        0.46780    0.93330    0.77570    1.000
    H124     H        0.48870    0.91580    0.79650    1.000
    C224     C        0.40680    0.91070    0.65500    1.000
    C225     C        0.42900    0.87190    0.63670    1.000
    H125     H        0.45770    0.86090    0.65180    1.000
    C226     C        0.61790    0.93870    0.94020    1.000
    C227     C        0.66490    0.92000    0.91820    1.000
    C228     C        0.67570    0.92510    0.87020    1.000
    H126     H        0.65300    0.94070    0.84970    1.000
    C229     C        0.71640    0.90920    0.85140    1.000
    H127     H        0.72440    0.91600    0.81870    1.000
    C230     C        0.74900    0.88090    0.88170    1.000
    C231     C        0.73880    0.87710    0.92910    1.000
    H128     H        0.76130    0.86270    0.95070    1.000
    C232     C        0.69720    0.89390    0.94500    1.000
    H129     H        0.68890    0.88730    0.97760    1.000
    C233     C        0.79870    0.86010    0.86090    1.000
    C234     C        0.81960    0.87920    0.81900    1.000
    H130     H        0.80470    0.90610    0.80400    1.000
    C235     C        0.62370    0.14810    0.87000    1.000
    H131     H        0.63560    0.12060    0.88650    1.000
    O62      O        0.49160    0.12370    0.88610    1.000
    C236     C        0.54110    0.10640    0.87690    1.000
    C237     C        0.67750    0.25660    0.81670    1.000
    C238     C        0.71810    0.27690    0.84420    1.000
    H132     H        0.72720    0.26440    0.87480    1.000
    C239     C        0.57170    0.14650    0.86150    1.000
    C240     C        0.54600    0.18510    0.83680    1.000
    H133     H        0.51240    0.18650    0.83000    1.000
    C241     C        0.66140    0.18380    0.85820    1.000
    H134     H        0.69500    0.18250    0.86490    1.000
    C242     C        0.63430    0.22120    0.83380    1.000
    C243     C        0.58240    0.22110    0.82460    1.000
    H135     H        0.57060    0.24880    0.80810    1.000
    O63      O        0.56200    0.06800    0.89650    1.000
    In10     In       0.47328    0.50603    0.57054    1.000
    O64      O        0.44428    0.52685    0.49861    1.000
    O65      O        0.50350    0.47780    0.63740    1.000
    O66      O        0.54310    0.54380    0.65630    1.000
    O67      O        0.38896    0.43690    0.51515    1.000
    O68      O        0.40950    0.46600    0.59150    1.000
    C244     C        0.53430    0.49870    0.66050    1.000
    C245     C        0.54720    0.47990    0.71020    1.000
    C246     C        0.57840    0.51040    0.73820    1.000
    H136     H        0.59430    0.53870    0.72720    1.000
    C247     C        0.58160    0.48820    0.79170    1.000
    H137     H        0.58710    0.50870    0.81870    1.000
    C248     C        0.57580    0.43570    0.79870    1.000
    C249     C        0.54680    0.41120    0.76830    1.000
    H138     H        0.53620    0.37960    0.77620    1.000
    C250     C        0.53220    0.43330    0.72430    1.000
    H139     H        0.51130    0.41580    0.70350    1.000
    C251     C        0.59320    0.41070    0.84500    1.000
    C252     C        0.57100    0.37190    0.86330    1.000
    H140     H        0.54230    0.36090    0.84820    1.000
    C253     C        0.38210    0.43870    0.55980    1.000
    C254     C        0.33510    0.42000    0.58180    1.000
    C255     C        0.32430    0.42510    0.62980    1.000
    H141     H        0.34700    0.44070    0.65030    1.000
    C256     C        0.28360    0.40920    0.64860    1.000
    H142     H        0.27560    0.41600    0.68130    1.000
    C257     C        0.25100    0.38090    0.61830    1.000
    C258     C        0.26120    0.37710    0.57090    1.000
    H143     H        0.23870    0.36270    0.54930    1.000
    C259     C        0.30280    0.39390    0.55500    1.000
    H144     H        0.31110    0.38730    0.52240    1.000
    C260     C        0.20130    0.36010    0.63910    1.000
    C261     C        0.18040    0.37920    0.68100    1.000
    H145     H        0.19530    0.40610    0.69600    1.000
    C262     C        0.37630    0.64810    0.63000    1.000
    H146     H        0.36440    0.62060    0.61350    1.000
    O69      O        0.50840    0.62370    0.61390    1.000
    C263     C        0.45890    0.60640    0.62310    1.000
    C264     C        0.32250    0.75660    0.68330    1.000
    C265     C        0.28190    0.77690    0.65580    1.000
    H147     H        0.27280    0.76440    0.62520    1.000
    C266     C        0.42830    0.64650    0.63850    1.000
    C267     C        0.45400    0.68510    0.66320    1.000
    H148     H        0.48760    0.68650    0.67000    1.000
    C268     C        0.33860    0.68380    0.64180    1.000
    H149     H        0.30500    0.68250    0.63510    1.000
    C269     C        0.36570    0.72120    0.66620    1.000
    C270     C        0.41760    0.72110    0.67540    1.000
    H150     H        0.42940    0.74880    0.69190    1.000
    O70      O        0.43800    0.56800    0.60350    1.000
    In11     In       0.02672    0.49397    0.07054    1.000
    O71      O        0.05572    0.47315    0.99861    1.000
    O72      O        0.99650    0.52220    0.13740    1.000
    O73      O        0.95690    0.45620    0.15630    1.000
    O74      O        0.11104    0.56310    0.01515    1.000
    O75      O        0.09050    0.53400    0.09150    1.000
    C271     C        0.96570    0.50130    0.16050    1.000
    C272     C        0.95280    0.52010    0.21020    1.000
    C273     C        0.92160    0.48960    0.23820    1.000
    H151     H        0.90570    0.46130    0.22720    1.000
    C274     C        0.91840    0.51180    0.29170    1.000
    H152     H        0.91290    0.49130    0.31870    1.000
    C275     C        0.92420    0.56430    0.29870    1.000
    C276     C        0.95320    0.58880    0.26830    1.000
    H153     H        0.96380    0.62040    0.27620    1.000
    C277     C        0.96780    0.56670    0.22430    1.000
    H154     H        0.98870    0.58420    0.20350    1.000
    C278     C        0.90680    0.58930    0.34500    1.000
    C279     C        0.92900    0.62810    0.36330    1.000
    H155     H        0.95770    0.63910    0.34820    1.000
    C280     C        0.11790    0.56130    0.05980    1.000
    C281     C        0.16490    0.58000    0.08180    1.000
    C282     C        0.17570    0.57490    0.12980    1.000
    H156     H        0.15300    0.55930    0.15030    1.000
    C283     C        0.21640    0.59080    0.14860    1.000
    H157     H        0.22440    0.58400    0.18130    1.000
    C284     C        0.24900    0.61910    0.11830    1.000
    C285     C        0.23880    0.62290    0.07090    1.000
    H158     H        0.26130    0.63730    0.04930    1.000
    C286     C        0.19720    0.60610    0.05500    1.000
    H159     H        0.18890    0.61270    0.02240    1.000
    C287     C        0.29870    0.63990    0.13910    1.000
    C288     C        0.31960    0.62080    0.18100    1.000
    H160     H        0.30470    0.59390    0.19600    1.000
    C289     C        0.12370    0.35190    0.13000    1.000
    H161     H        0.13560    0.37940    0.11350    1.000
    O76      O        0.99160    0.37630    0.11390    1.000
    C290     C        0.04110    0.39360    0.12310    1.000
    C291     C        0.17750    0.24340    0.18330    1.000
    C292     C        0.21810    0.22310    0.15580    1.000
    H162     H        0.22720    0.23560    0.12520    1.000
    C293     C        0.07170    0.35350    0.13850    1.000
    C294     C        0.04600    0.31490    0.16320    1.000
    H163     H        0.01240    0.31350    0.17000    1.000
    C295     C        0.16140    0.31620    0.14180    1.000
    H164     H        0.19500    0.31750    0.13510    1.000
    C296     C        0.13430    0.27880    0.16620    1.000
    C297     C        0.08240    0.27890    0.17540    1.000
    H165     H        0.07060    0.25120    0.19190    1.000
    O77      O        0.06200    0.43200    0.10350    1.000
    In12     In       0.97328    0.99397    0.42946    1.000
    O78      O        0.94428    0.97315    0.50139    1.000
    O79      O        0.00350    0.02220    0.36260    1.000
    O80      O        0.04310    0.95620    0.34370    1.000
    O81      O        0.88896    0.06310    0.48485    1.000
    O82      O        0.90950    0.03400    0.40850    1.000
    C298     C        0.03430    0.00130    0.33950    1.000
    C299     C        0.04720    0.02010    0.28980    1.000
    C300     C        0.07840    0.98960    0.26180    1.000
    H166     H        0.09430    0.96130    0.27280    1.000
    C301     C        0.08160    0.01180    0.20830    1.000
    H167     H        0.08710    0.99130    0.18130    1.000
    C302     C        0.07580    0.06430    0.20130    1.000
    C303     C        0.04680    0.08880    0.23170    1.000
    H168     H        0.03620    0.12040    0.22380    1.000
    C304     C        0.03220    0.06670    0.27570    1.000
    H169     H        0.01130    0.08420    0.29650    1.000
    C305     C        0.09320    0.08930    0.15500    1.000
    C306     C        0.07100    0.12810    0.13670    1.000
    H170     H        0.04230    0.13910    0.15180    1.000
    C307     C        0.88210    0.06130    0.44020    1.000
    C308     C        0.83510    0.08000    0.41820    1.000
    C309     C        0.82430    0.07490    0.37020    1.000
    H171     H        0.84700    0.05930    0.34970    1.000
    C310     C        0.78360    0.09080    0.35140    1.000
    H172     H        0.77560    0.08400    0.31870    1.000
    C311     C        0.75100    0.11910    0.38170    1.000
    C312     C        0.76120    0.12290    0.42910    1.000
    H173     H        0.73870    0.13730    0.45070    1.000
    C313     C        0.80280    0.10610    0.44500    1.000
    H174     H        0.81110    0.11270    0.47760    1.000
    C314     C        0.70130    0.13990    0.36090    1.000
    C315     C        0.68040    0.12080    0.31900    1.000
    H175     H        0.69530    0.09390    0.30400    1.000
    C316     C        0.87630    0.85190    0.37000    1.000
    H176     H        0.86440    0.87940    0.38650    1.000
    O83      O        0.00840    0.87630    0.38610    1.000
    C317     C        0.95890    0.89360    0.37690    1.000
    C318     C        0.82250    0.74340    0.31670    1.000
    C319     C        0.78190    0.72310    0.34420    1.000
    H177     H        0.77280    0.73560    0.37480    1.000
    C320     C        0.92830    0.85350    0.36150    1.000
    C321     C        0.95400    0.81490    0.33680    1.000
    H178     H        0.98760    0.81350    0.33000    1.000
    C322     C        0.83860    0.81620    0.35820    1.000
    H179     H        0.80500    0.81750    0.36490    1.000
    C323     C        0.86570    0.77880    0.33380    1.000
    C324     C        0.91760    0.77890    0.32460    1.000
    H180     H        0.92940    0.75120    0.30810    1.000
    O84      O        0.93800    0.93200    0.39650    1.000
    Pr1      Pr       0.05240    0.55240    0.94760    1.000
    Pr2      Pr       0.90984    0.40984    0.09016    1.000
    O85      O        0.96137    0.46137    0.03863    1.000
    Pr3      Pr       0.44760    0.44760    0.44760    1.000
    Pr4      Pr       0.59016    0.59016    0.59016    1.000
    O86      O        0.53863    0.53863    0.53863    1.000
    Pr5      Pr       0.94760    0.05240    0.55240    1.000
    Pr6      Pr       0.09016    0.90984    0.40984    1.000
    O87      O        0.03863    0.96137    0.46137    1.000
    Pr7      Pr       0.55240    0.94760    0.05240    1.000
    Pr8      Pr       0.40984    0.09016    0.90984    1.000
    O88      O        0.46137    0.03863    0.96137    1.000
