# CIF file generated by openbabel 3.1.0, see https://openbabel.org
data_I
_chemical_name_common 'image0'
_cell_length_a 29.641
_cell_length_b 11.9922
_cell_length_c 25.453
_cell_angle_alpha 90
_cell_angle_beta 118.613
_cell_angle_gamma 90
_space_group_name_H-M_alt 'P 1'
_space_group_name_Hall 'P 1'
loop_
    _symmetry_equiv_pos_as_xyz
    x,y,z
loop_
    _atom_site_label
    _atom_site_type_symbol
    _atom_site_fract_x
    _atom_site_fract_y
    _atom_site_fract_z
    _atom_site_occupancy
    C1       C        0.28851    0.00330    0.09990    1.000
    H1       H        0.32130    0.98160    0.10770    1.000
    C2       C        0.20805    0.04680    0.05430    1.000
    H2       H        0.17480    0.06040    0.02410    1.000
    C3       C        0.22376    0.05490    0.11350    1.000
    H3       H        0.20390    0.07550    0.13120    1.000
    C4       C        0.30906    0.02410    0.20589    1.000
    C5       C        0.35902    0.04970    0.22800    1.000
    H4       H        0.37210    0.06610    0.20220    1.000
    C6       C        0.39105    0.05140    0.28960    1.000
    H5       H        0.42560    0.06960    0.30510    1.000
    C7       C        0.37157    0.02620    0.32735    1.000
    C8       C        0.32081    0.99830    0.30440    1.000
    H6       H        0.30790    0.97970    0.33010    1.000
    C9       C        0.28880    0.99760    0.24370    1.000
    H7       H        0.25420    0.97970    0.22810    1.000
    C10      C        0.45188    0.05250    0.41340    1.000
    C11      C        0.48390    0.96360    0.42100    1.000
    H8       H        0.46990    0.89380    0.40630    1.000
    C12      C        0.53763    0.97740    0.45070    1.000
    H9       H        0.55960    0.91710    0.45820    1.000
    C13      C        0.55630    0.08370    0.46830    1.000
    C14      C        0.52453    0.17180    0.45970    1.000
    H10      H        0.53820    0.24290    0.47190    1.000
    C15      C        0.47127    0.15540    0.43250    1.000
    H11      H        0.44950    0.21480    0.42770    1.000
    C16      C        0.64407    0.03560    0.49070    1.000
    H12      H        0.63460    0.97770    0.46320    1.000
    C17      C        0.68794    0.15300    0.55800    1.000
    H13      H        0.71560    0.19210    0.58740    1.000
    C18      C        0.63915    0.17510    0.54110    1.000
    H14      H        0.62670    0.23200    0.55540    1.000
    C19      C        0.27836    0.83950    0.88127    1.000
    H15      H        0.31200    0.83950    0.91240    1.000
    C20      C        0.19969    0.87120    0.82970    1.000
    H16      H        0.16670    0.89770    0.81760    1.000
    C21      C        0.21279    0.80820    0.79600    1.000
    H17      H        0.19120    0.78390    0.75720    1.000
    C22      C        0.29565    0.72730    0.81174    1.000
    C23      C        0.28257    0.72030    0.75188    1.000
    H18      H        0.25210    0.75240    0.72310    1.000
    C24      C        0.31422    0.66620    0.73460    1.000
    H19      H        0.30550    0.66230    0.69440    1.000
    C25      C        0.35838    0.61850    0.77700    1.000
    C26      C        0.37072    0.62040    0.83600    1.000
    H20      H        0.40040    0.58520    0.86430    1.000
    C27      C        0.33867    0.67520    0.85390    1.000
    H21      H        0.34660    0.67600    0.89390    1.000
    C28      C        0.44142    0.57770    0.79000    1.000
    C29      C        0.54540    0.60660    0.84514    1.000
    C30      C        0.51500    0.69870    0.81600    1.000
    H22      H        0.52910    0.76770    0.81530    1.000
    C31      C        0.46200    0.68040    0.78780    1.000
    H23      H        0.43990    0.73860    0.76700    1.000
    C32      C        0.63476    0.53900    0.89050    1.000
    H24      H        0.62610    0.46380    0.88440    1.000
    C33      C        0.67844    0.68950    0.91610    1.000
    H25      H        0.70580    0.73940    0.93160    1.000
    C34      C        0.62757    0.71790    0.88880    1.000
    H26      H        0.61420    0.78980    0.88200    1.000
    C35      C        0.27946    0.75130    0.01549    1.000
    Co1      Co       0.24529    0.96683    0.96294    1.000
    N1       N        0.24883    0.01530    0.04518    1.000
    N2       N        0.27543    0.02620    0.14243    1.000
    N3       N        0.61057    0.09800    0.49838    1.000
    N4       N        0.69224    0.06500    0.52649    1.000
    N5       N        0.24039    0.89170    0.88356    1.000
    N6       N        0.26335    0.78640    0.82920    1.000
    N7       N        0.60001    0.62010    0.87333    1.000
    N8       N        0.68254    0.57510    0.91690    1.000
    O1       O        0.39976    0.03240    0.38857    1.000
    O2       O        0.38853    0.56040    0.75781    1.000
    O3       O        0.29951    0.83920    0.01278    1.000
    O4       O        0.30417    0.66380    0.04097    1.000
    C36      C        0.47120    0.49900    0.82010    1.000
    H27      H        0.45710    0.43030    0.82110    1.000
    C37      C        0.52510    0.51240    0.85220    1.000
    H28      H        0.54590    0.45660    0.87770    1.000
    C38      C        0.47080    0.48520    0.79010    1.000
    H29      H        0.45600    0.41690    0.77340    1.000
    C39      C        0.52420    0.50380    0.81750    1.000
    H30      H        0.54580    0.44760    0.81720    1.000
    C40      C        0.46030    0.67360    0.81240    1.000
    H31      H        0.43900    0.73220    0.81060    1.000
    C41      C        0.51470    0.68800    0.84010    1.000
    H32      H        0.52850    0.75780    0.85500    1.000
    C42      C        0.78851    0.50330    0.09990    1.000
    H33      H        0.82130    0.48160    0.10770    1.000
    C43      C        0.70805    0.54680    0.05430    1.000
    H34      H        0.67480    0.56040    0.02410    1.000
    C44      C        0.72376    0.55490    0.11350    1.000
    H35      H        0.70390    0.57550    0.13120    1.000
    C45      C        0.80906    0.52410    0.20589    1.000
    C46      C        0.85902    0.54970    0.22800    1.000
    H36      H        0.87210    0.56610    0.20220    1.000
    C47      C        0.89105    0.55140    0.28960    1.000
    H37      H        0.92560    0.56960    0.30510    1.000
    C48      C        0.87157    0.52620    0.32735    1.000
    C49      C        0.82081    0.49830    0.30440    1.000
    H38      H        0.80790    0.47970    0.33010    1.000
    C50      C        0.78880    0.49760    0.24370    1.000
    H39      H        0.75420    0.47970    0.22810    1.000
    C51      C        0.95188    0.55250    0.41340    1.000
    C52      C        0.98390    0.46360    0.42100    1.000
    H40      H        0.96990    0.39380    0.40630    1.000
    C53      C        0.03763    0.47740    0.45070    1.000
    H41      H        0.05960    0.41710    0.45820    1.000
    C54      C        0.05630    0.58370    0.46830    1.000
    C55      C        0.02453    0.67180    0.45970    1.000
    H42      H        0.03820    0.74290    0.47190    1.000
    C56      C        0.97127    0.65540    0.43250    1.000
    H43      H        0.94950    0.71480    0.42770    1.000
    C57      C        0.14407    0.53560    0.49070    1.000
    H44      H        0.13460    0.47770    0.46320    1.000
    C58      C        0.18794    0.65300    0.55800    1.000
    H45      H        0.21560    0.69210    0.58740    1.000
    C59      C        0.13915    0.67510    0.54110    1.000
    H46      H        0.12670    0.73200    0.55540    1.000
    C60      C        0.77836    0.33950    0.88127    1.000
    H47      H        0.81200    0.33950    0.91240    1.000
    C61      C        0.69969    0.37120    0.82970    1.000
    H48      H        0.66670    0.39770    0.81760    1.000
    C62      C        0.71279    0.30820    0.79600    1.000
    H49      H        0.69120    0.28390    0.75720    1.000
    C63      C        0.79565    0.22730    0.81174    1.000
    C64      C        0.78257    0.22030    0.75188    1.000
    H50      H        0.75210    0.25240    0.72310    1.000
    C65      C        0.81422    0.16620    0.73460    1.000
    H51      H        0.80550    0.16230    0.69440    1.000
    C66      C        0.85838    0.11850    0.77700    1.000
    C67      C        0.87072    0.12040    0.83600    1.000
    H52      H        0.90040    0.08520    0.86430    1.000
    C68      C        0.83867    0.17520    0.85390    1.000
    H53      H        0.84660    0.17600    0.89390    1.000
    C69      C        0.94142    0.07770    0.79000    1.000
    C70      C        0.04540    0.10660    0.84514    1.000
    C71      C        0.01500    0.19870    0.81600    1.000
    H54      H        0.02910    0.26770    0.81530    1.000
    C72      C        0.96200    0.18040    0.78780    1.000
    H55      H        0.93990    0.23860    0.76700    1.000
    C73      C        0.13476    0.03900    0.89050    1.000
    H56      H        0.12610    0.96380    0.88440    1.000
    C74      C        0.17844    0.18950    0.91610    1.000
    H57      H        0.20580    0.23940    0.93160    1.000
    C75      C        0.12757    0.21790    0.88880    1.000
    H58      H        0.11420    0.28980    0.88200    1.000
    C76      C        0.77946    0.25130    0.01549    1.000
    Co2      Co       0.74529    0.46683    0.96294    1.000
    N9       N        0.74883    0.51530    0.04518    1.000
    N10      N        0.77543    0.52620    0.14243    1.000
    N11      N        0.11057    0.59800    0.49838    1.000
    N12      N        0.19224    0.56500    0.52649    1.000
    N13      N        0.74039    0.39170    0.88356    1.000
    N14      N        0.76335    0.28640    0.82920    1.000
    N15      N        0.10001    0.12010    0.87333    1.000
    N16      N        0.18254    0.07510    0.91690    1.000
    O5       O        0.89976    0.53240    0.38857    1.000
    O6       O        0.88853    0.06040    0.75781    1.000
    O7       O        0.79951    0.33920    0.01278    1.000
    O8       O        0.80417    0.16380    0.04097    1.000
    C77      C        0.97120    0.99900    0.82010    1.000
    H59      H        0.95710    0.93030    0.82110    1.000
    C78      C        0.02510    0.01240    0.85220    1.000
    H60      H        0.04590    0.95660    0.87770    1.000
    C79      C        0.97080    0.98520    0.79010    1.000
    H61      H        0.95600    0.91690    0.77340    1.000
    C80      C        0.02420    0.00380    0.81750    1.000
    H62      H        0.04580    0.94760    0.81720    1.000
    C81      C        0.96030    0.17360    0.81240    1.000
    H63      H        0.93900    0.23220    0.81060    1.000
    C82      C        0.01470    0.18800    0.84010    1.000
    H64      H        0.02850    0.25780    0.85500    1.000
    C83      C        0.71149    0.00330    0.40010    1.000
    H65      H        0.67870    0.98160    0.39230    1.000
    C84      C        0.79195    0.04680    0.44570    1.000
    H66      H        0.82520    0.06040    0.47590    1.000
    C85      C        0.77624    0.05490    0.38650    1.000
    H67      H        0.79610    0.07550    0.36880    1.000
    C86      C        0.69094    0.02410    0.29411    1.000
    C87      C        0.64098    0.04970    0.27200    1.000
    H68      H        0.62790    0.06610    0.29780    1.000
    C88      C        0.60895    0.05140    0.21040    1.000
    H69      H        0.57440    0.06960    0.19490    1.000
    C89      C        0.62843    0.02620    0.17265    1.000
    C90      C        0.67919    0.99830    0.19560    1.000
    H70      H        0.69210    0.97970    0.16990    1.000
    C91      C        0.71120    0.99760    0.25630    1.000
    H71      H        0.74580    0.97970    0.27190    1.000
    C92      C        0.54812    0.05250    0.08660    1.000
    C93      C        0.51610    0.96360    0.07900    1.000
    H72      H        0.53010    0.89380    0.09370    1.000
    C94      C        0.46237    0.97740    0.04930    1.000
    H73      H        0.44040    0.91710    0.04180    1.000
    C95      C        0.44370    0.08370    0.03170    1.000
    C96      C        0.47547    0.17180    0.04030    1.000
    H74      H        0.46180    0.24290    0.02810    1.000
    C97      C        0.52873    0.15540    0.06750    1.000
    H75      H        0.55050    0.21480    0.07230    1.000
    C98      C        0.35593    0.03560    0.00930    1.000
    H76      H        0.36540    0.97770    0.03680    1.000
    C99      C        0.31206    0.15300    0.94200    1.000
    H77      H        0.28440    0.19210    0.91260    1.000
    C100     C        0.36085    0.17510    0.95890    1.000
    H78      H        0.37330    0.23200    0.94460    1.000
    C101     C        0.72164    0.83950    0.61873    1.000
    H79      H        0.68800    0.83950    0.58760    1.000
    C102     C        0.80031    0.87120    0.67030    1.000
    H80      H        0.83330    0.89770    0.68240    1.000
    C103     C        0.78721    0.80820    0.70400    1.000
    H81      H        0.80880    0.78390    0.74280    1.000
    C104     C        0.70435    0.72730    0.68826    1.000
    C105     C        0.71743    0.72030    0.74812    1.000
    H82      H        0.74790    0.75240    0.77690    1.000
    C106     C        0.68578    0.66620    0.76540    1.000
    H83      H        0.69450    0.66230    0.80560    1.000
    C107     C        0.64162    0.61850    0.72300    1.000
    C108     C        0.62928    0.62040    0.66400    1.000
    H84      H        0.59960    0.58520    0.63570    1.000
    C109     C        0.66133    0.67520    0.64610    1.000
    H85      H        0.65340    0.67600    0.60610    1.000
    C110     C        0.55858    0.57770    0.71000    1.000
    C111     C        0.45460    0.60660    0.65486    1.000
    C112     C        0.48500    0.69870    0.68400    1.000
    H86      H        0.47090    0.76770    0.68470    1.000
    C113     C        0.53800    0.68040    0.71220    1.000
    H87      H        0.56010    0.73860    0.73300    1.000
    C114     C        0.36524    0.53900    0.60950    1.000
    H88      H        0.37390    0.46380    0.61560    1.000
    C115     C        0.32156    0.68950    0.58390    1.000
    H89      H        0.29420    0.73940    0.56840    1.000
    C116     C        0.37243    0.71790    0.61120    1.000
    H90      H        0.38580    0.78980    0.61800    1.000
    C117     C        0.72054    0.75130    0.48451    1.000
    Co3      Co       0.75471    0.96683    0.53706    1.000
    N17      N        0.75117    0.01530    0.45482    1.000
    N18      N        0.72457    0.02620    0.35757    1.000
    N19      N        0.38943    0.09800    0.00162    1.000
    N20      N        0.30776    0.06500    0.97351    1.000
    N21      N        0.75961    0.89170    0.61644    1.000
    N22      N        0.73665    0.78640    0.67080    1.000
    N23      N        0.39999    0.62010    0.62667    1.000
    N24      N        0.31746    0.57510    0.58310    1.000
    O9       O        0.60024    0.03240    0.11143    1.000
    O10      O        0.61147    0.56040    0.74219    1.000
    O11      O        0.70049    0.83920    0.48722    1.000
    O12      O        0.69583    0.66380    0.45903    1.000
    C118     C        0.52880    0.49900    0.67990    1.000
    H91      H        0.54290    0.43030    0.67890    1.000
    C119     C        0.47490    0.51240    0.64780    1.000
    H92      H        0.45410    0.45660    0.62230    1.000
    C120     C        0.52920    0.48520    0.70990    1.000
    H93      H        0.54400    0.41690    0.72660    1.000
    C121     C        0.47580    0.50380    0.68250    1.000
    H94      H        0.45420    0.44760    0.68280    1.000
    C122     C        0.53970    0.67360    0.68760    1.000
    H95      H        0.56100    0.73220    0.68940    1.000
    C123     C        0.48530    0.68800    0.65990    1.000
    H96      H        0.47150    0.75780    0.64500    1.000
    C124     C        0.21149    0.50330    0.40010    1.000
    H97      H        0.17870    0.48160    0.39230    1.000
    C125     C        0.29195    0.54680    0.44570    1.000
    H98      H        0.32520    0.56040    0.47590    1.000
    C126     C        0.27624    0.55490    0.38650    1.000
    H99      H        0.29610    0.57550    0.36880    1.000
    C127     C        0.19094    0.52410    0.29411    1.000
    C128     C        0.14098    0.54970    0.27200    1.000
    H100     H        0.12790    0.56610    0.29780    1.000
    C129     C        0.10895    0.55140    0.21040    1.000
    H101     H        0.07440    0.56960    0.19490    1.000
    C130     C        0.12843    0.52620    0.17265    1.000
    C131     C        0.17919    0.49830    0.19560    1.000
    H102     H        0.19210    0.47970    0.16990    1.000
    C132     C        0.21120    0.49760    0.25630    1.000
    H103     H        0.24580    0.47970    0.27190    1.000
    C133     C        0.04812    0.55250    0.08660    1.000
    C134     C        0.01610    0.46360    0.07900    1.000
    H104     H        0.03010    0.39380    0.09370    1.000
    C135     C        0.96237    0.47740    0.04930    1.000
    H105     H        0.94040    0.41710    0.04180    1.000
    C136     C        0.94370    0.58370    0.03170    1.000
    C137     C        0.97547    0.67180    0.04030    1.000
    H106     H        0.96180    0.74290    0.02810    1.000
    C138     C        0.02873    0.65540    0.06750    1.000
    H107     H        0.05050    0.71480    0.07230    1.000
    C139     C        0.85593    0.53560    0.00930    1.000
    H108     H        0.86540    0.47770    0.03680    1.000
    C140     C        0.81206    0.65300    0.94200    1.000
    H109     H        0.78440    0.69210    0.91260    1.000
    C141     C        0.86085    0.67510    0.95890    1.000
    H110     H        0.87330    0.73200    0.94460    1.000
    C142     C        0.22164    0.33950    0.61873    1.000
    H111     H        0.18800    0.33950    0.58760    1.000
    C143     C        0.30031    0.37120    0.67030    1.000
    H112     H        0.33330    0.39770    0.68240    1.000
    C144     C        0.28721    0.30820    0.70400    1.000
    H113     H        0.30880    0.28390    0.74280    1.000
    C145     C        0.20435    0.22730    0.68826    1.000
    C146     C        0.21743    0.22030    0.74812    1.000
    H114     H        0.24790    0.25240    0.77690    1.000
    C147     C        0.18578    0.16620    0.76540    1.000
    H115     H        0.19450    0.16230    0.80560    1.000
    C148     C        0.14162    0.11850    0.72300    1.000
    C149     C        0.12928    0.12040    0.66400    1.000
    H116     H        0.09960    0.08520    0.63570    1.000
    C150     C        0.16133    0.17520    0.64610    1.000
    H117     H        0.15340    0.17600    0.60610    1.000
    C151     C        0.05858    0.07770    0.71000    1.000
    C152     C        0.95460    0.10660    0.65486    1.000
    C153     C        0.98500    0.19870    0.68400    1.000
    H118     H        0.97090    0.26770    0.68470    1.000
    C154     C        0.03800    0.18040    0.71220    1.000
    H119     H        0.06010    0.23860    0.73300    1.000
    C155     C        0.86524    0.03900    0.60950    1.000
    H120     H        0.87390    0.96380    0.61560    1.000
    C156     C        0.82156    0.18950    0.58390    1.000
    H121     H        0.79420    0.23940    0.56840    1.000
    C157     C        0.87243    0.21790    0.61120    1.000
    H122     H        0.88580    0.28980    0.61800    1.000
    C158     C        0.22054    0.25130    0.48451    1.000
    Co4      Co       0.25471    0.46683    0.53706    1.000
    N25      N        0.25117    0.51530    0.45482    1.000
    N26      N        0.22457    0.52620    0.35757    1.000
    N27      N        0.88943    0.59800    0.00162    1.000
    N28      N        0.80776    0.56500    0.97351    1.000
    N29      N        0.25961    0.39170    0.61644    1.000
    N30      N        0.23665    0.28640    0.67080    1.000
    N31      N        0.89999    0.12010    0.62667    1.000
    N32      N        0.81746    0.07510    0.58310    1.000
    O13      O        0.10024    0.53240    0.11143    1.000
    O14      O        0.11147    0.06040    0.74219    1.000
    O15      O        0.20049    0.33920    0.48722    1.000
    O16      O        0.19583    0.16380    0.45903    1.000
    C159     C        0.02880    0.99900    0.67990    1.000
    H123     H        0.04290    0.93030    0.67890    1.000
    C160     C        0.97490    0.01240    0.64780    1.000
    H124     H        0.95410    0.95660    0.62230    1.000
    C161     C        0.02920    0.98520    0.70990    1.000
    H125     H        0.04400    0.91690    0.72660    1.000
    C162     C        0.97580    0.00380    0.68250    1.000
    H126     H        0.95420    0.94760    0.68280    1.000
    C163     C        0.03970    0.17360    0.68760    1.000
    H127     H        0.06100    0.23220    0.68940    1.000
    C164     C        0.98530    0.18800    0.65990    1.000
    H128     H        0.97150    0.25780    0.64500    1.000
    C165     C        0.71149    0.99670    0.90010    1.000
    H129     H        0.67870    0.01840    0.89230    1.000
    C166     C        0.79195    0.95320    0.94570    1.000
    H130     H        0.82520    0.93960    0.97590    1.000
    C167     C        0.77624    0.94510    0.88650    1.000
    H131     H        0.79610    0.92450    0.86880    1.000
    C168     C        0.69094    0.97590    0.79411    1.000
    C169     C        0.64098    0.95030    0.77200    1.000
    H132     H        0.62790    0.93390    0.79780    1.000
    C170     C        0.60895    0.94860    0.71040    1.000
    H133     H        0.57440    0.93040    0.69490    1.000
    C171     C        0.62843    0.97380    0.67265    1.000
    C172     C        0.67919    0.00170    0.69560    1.000
    H134     H        0.69210    0.02030    0.66990    1.000
    C173     C        0.71120    0.00240    0.75630    1.000
    H135     H        0.74580    0.02030    0.77190    1.000
    C174     C        0.54812    0.94750    0.58660    1.000
    C175     C        0.51610    0.03640    0.57900    1.000
    H136     H        0.53010    0.10620    0.59370    1.000
    C176     C        0.46237    0.02260    0.54930    1.000
    H137     H        0.44040    0.08290    0.54180    1.000
    C177     C        0.44370    0.91630    0.53170    1.000
    C178     C        0.47547    0.82820    0.54030    1.000
    H138     H        0.46180    0.75710    0.52810    1.000
    C179     C        0.52873    0.84460    0.56750    1.000
    H139     H        0.55050    0.78520    0.57230    1.000
    C180     C        0.35593    0.96440    0.50930    1.000
    H140     H        0.36540    0.02230    0.53680    1.000
    C181     C        0.31206    0.84700    0.44200    1.000
    H141     H        0.28440    0.80790    0.41260    1.000
    C182     C        0.36085    0.82490    0.45890    1.000
    H142     H        0.37330    0.76800    0.44460    1.000
    C183     C        0.72164    0.16050    0.11873    1.000
    H143     H        0.68800    0.16050    0.08760    1.000
    C184     C        0.80031    0.12880    0.17030    1.000
    H144     H        0.83330    0.10230    0.18240    1.000
    C185     C        0.78721    0.19180    0.20400    1.000
    H145     H        0.80880    0.21610    0.24280    1.000
    C186     C        0.70435    0.27270    0.18826    1.000
    C187     C        0.71743    0.27970    0.24812    1.000
    H146     H        0.74790    0.24760    0.27690    1.000
    C188     C        0.68578    0.33380    0.26540    1.000
    H147     H        0.69450    0.33770    0.30560    1.000
    C189     C        0.64162    0.38150    0.22300    1.000
    C190     C        0.62928    0.37960    0.16400    1.000
    H148     H        0.59960    0.41480    0.13570    1.000
    C191     C        0.66133    0.32480    0.14610    1.000
    H149     H        0.65340    0.32400    0.10610    1.000
    C192     C        0.55858    0.42230    0.21000    1.000
    C193     C        0.45460    0.39340    0.15486    1.000
    C194     C        0.48500    0.30130    0.18400    1.000
    H150     H        0.47090    0.23230    0.18470    1.000
    C195     C        0.53800    0.31960    0.21220    1.000
    H151     H        0.56010    0.26140    0.23300    1.000
    C196     C        0.36524    0.46100    0.10950    1.000
    H152     H        0.37390    0.53620    0.11560    1.000
    C197     C        0.32156    0.31050    0.08390    1.000
    H153     H        0.29420    0.26060    0.06840    1.000
    C198     C        0.37243    0.28210    0.11120    1.000
    H154     H        0.38580    0.21020    0.11800    1.000
    C199     C        0.72054    0.24870    0.98451    1.000
    Co5      Co       0.75471    0.03317    0.03706    1.000
    N33      N        0.75117    0.98470    0.95482    1.000
    N34      N        0.72457    0.97380    0.85757    1.000
    N35      N        0.38943    0.90200    0.50162    1.000
    N36      N        0.30776    0.93500    0.47351    1.000
    N37      N        0.75961    0.10830    0.11644    1.000
    N38      N        0.73665    0.21360    0.17080    1.000
    N39      N        0.39999    0.37990    0.12667    1.000
    N40      N        0.31746    0.42490    0.08310    1.000
    O17      O        0.60024    0.96760    0.61143    1.000
    O18      O        0.61147    0.43960    0.24219    1.000
    O19      O        0.70049    0.16080    0.98722    1.000
    O20      O        0.69583    0.33620    0.95903    1.000
    C200     C        0.52880    0.50100    0.17990    1.000
    H155     H        0.54290    0.56970    0.17890    1.000
    C201     C        0.47490    0.48760    0.14780    1.000
    H156     H        0.45410    0.54340    0.12230    1.000
    C202     C        0.52920    0.51480    0.20990    1.000
    H157     H        0.54400    0.58310    0.22660    1.000
    C203     C        0.47580    0.49620    0.18250    1.000
    H158     H        0.45420    0.55240    0.18280    1.000
    C204     C        0.53970    0.32640    0.18760    1.000
    H159     H        0.56100    0.26780    0.18940    1.000
    C205     C        0.48530    0.31200    0.15990    1.000
    H160     H        0.47150    0.24220    0.14500    1.000
    C206     C        0.21149    0.49670    0.90010    1.000
    H161     H        0.17870    0.51840    0.89230    1.000
    C207     C        0.29195    0.45320    0.94570    1.000
    H162     H        0.32520    0.43960    0.97590    1.000
    C208     C        0.27624    0.44510    0.88650    1.000
    H163     H        0.29610    0.42450    0.86880    1.000
    C209     C        0.19094    0.47590    0.79411    1.000
    C210     C        0.14098    0.45030    0.77200    1.000
    H164     H        0.12790    0.43390    0.79780    1.000
    C211     C        0.10895    0.44860    0.71040    1.000
    H165     H        0.07440    0.43040    0.69490    1.000
    C212     C        0.12843    0.47380    0.67265    1.000
    C213     C        0.17919    0.50170    0.69560    1.000
    H166     H        0.19210    0.52030    0.66990    1.000
    C214     C        0.21120    0.50240    0.75630    1.000
    H167     H        0.24580    0.52030    0.77190    1.000
    C215     C        0.04812    0.44750    0.58660    1.000
    C216     C        0.01610    0.53640    0.57900    1.000
    H168     H        0.03010    0.60620    0.59370    1.000
    C217     C        0.96237    0.52260    0.54930    1.000
    H169     H        0.94040    0.58290    0.54180    1.000
    C218     C        0.94370    0.41630    0.53170    1.000
    C219     C        0.97547    0.32820    0.54030    1.000
    H170     H        0.96180    0.25710    0.52810    1.000
    C220     C        0.02873    0.34460    0.56750    1.000
    H171     H        0.05050    0.28520    0.57230    1.000
    C221     C        0.85593    0.46440    0.50930    1.000
    H172     H        0.86540    0.52230    0.53680    1.000
    C222     C        0.81206    0.34700    0.44200    1.000
    H173     H        0.78440    0.30790    0.41260    1.000
    C223     C        0.86085    0.32490    0.45890    1.000
    H174     H        0.87330    0.26800    0.44460    1.000
    C224     C        0.22164    0.66050    0.11873    1.000
    H175     H        0.18800    0.66050    0.08760    1.000
    C225     C        0.30031    0.62880    0.17030    1.000
    H176     H        0.33330    0.60230    0.18240    1.000
    C226     C        0.28721    0.69180    0.20400    1.000
    H177     H        0.30880    0.71610    0.24280    1.000
    C227     C        0.20435    0.77270    0.18826    1.000
    C228     C        0.21743    0.77970    0.24812    1.000
    H178     H        0.24790    0.74760    0.27690    1.000
    C229     C        0.18578    0.83380    0.26540    1.000
    H179     H        0.19450    0.83770    0.30560    1.000
    C230     C        0.14162    0.88150    0.22300    1.000
    C231     C        0.12928    0.87960    0.16400    1.000
    H180     H        0.09960    0.91480    0.13570    1.000
    C232     C        0.16133    0.82480    0.14610    1.000
    H181     H        0.15340    0.82400    0.10610    1.000
    C233     C        0.05858    0.92230    0.21000    1.000
    C234     C        0.95460    0.89340    0.15486    1.000
    C235     C        0.98500    0.80130    0.18400    1.000
    H182     H        0.97090    0.73230    0.18470    1.000
    C236     C        0.03800    0.81960    0.21220    1.000
    H183     H        0.06010    0.76140    0.23300    1.000
    C237     C        0.86524    0.96100    0.10950    1.000
    H184     H        0.87390    0.03620    0.11560    1.000
    C238     C        0.82156    0.81050    0.08390    1.000
    H185     H        0.79420    0.76060    0.06840    1.000
    C239     C        0.87243    0.78210    0.11120    1.000
    H186     H        0.88580    0.71020    0.11800    1.000
    C240     C        0.22054    0.74870    0.98451    1.000
    Co6      Co       0.25471    0.53317    0.03706    1.000
    N41      N        0.25117    0.48470    0.95482    1.000
    N42      N        0.22457    0.47380    0.85757    1.000
    N43      N        0.88943    0.40200    0.50162    1.000
    N44      N        0.80776    0.43500    0.47351    1.000
    N45      N        0.25961    0.60830    0.11644    1.000
    N46      N        0.23665    0.71360    0.17080    1.000
    N47      N        0.89999    0.87990    0.12667    1.000
    N48      N        0.81746    0.92490    0.08310    1.000
    O21      O        0.10024    0.46760    0.61143    1.000
    O22      O        0.11147    0.93960    0.24219    1.000
    O23      O        0.20049    0.66080    0.98722    1.000
    O24      O        0.19583    0.83620    0.95903    1.000
    C241     C        0.02880    0.00100    0.17990    1.000
    H187     H        0.04290    0.06970    0.17890    1.000
    C242     C        0.97490    0.98760    0.14780    1.000
    H188     H        0.95410    0.04340    0.12230    1.000
    C243     C        0.02920    0.01480    0.20990    1.000
    H189     H        0.04400    0.08310    0.22660    1.000
    C244     C        0.97580    0.99620    0.18250    1.000
    H190     H        0.95420    0.05240    0.18280    1.000
    C245     C        0.03970    0.82640    0.18760    1.000
    H191     H        0.06100    0.76780    0.18940    1.000
    C246     C        0.98530    0.81200    0.15990    1.000
    H192     H        0.97150    0.74220    0.14500    1.000
    C247     C        0.28851    0.99670    0.59990    1.000
    H193     H        0.32130    0.01840    0.60770    1.000
    C248     C        0.20805    0.95320    0.55430    1.000
    H194     H        0.17480    0.93960    0.52410    1.000
    C249     C        0.22376    0.94510    0.61350    1.000
    H195     H        0.20390    0.92450    0.63120    1.000
    C250     C        0.30906    0.97590    0.70589    1.000
    C251     C        0.35902    0.95030    0.72800    1.000
    H196     H        0.37210    0.93390    0.70220    1.000
    C252     C        0.39105    0.94860    0.78960    1.000
    H197     H        0.42560    0.93040    0.80510    1.000
    C253     C        0.37157    0.97380    0.82735    1.000
    C254     C        0.32081    0.00170    0.80440    1.000
    H198     H        0.30790    0.02030    0.83010    1.000
    C255     C        0.28880    0.00240    0.74370    1.000
    H199     H        0.25420    0.02030    0.72810    1.000
    C256     C        0.45188    0.94750    0.91340    1.000
    C257     C        0.48390    0.03640    0.92100    1.000
    H200     H        0.46990    0.10620    0.90630    1.000
    C258     C        0.53763    0.02260    0.95070    1.000
    H201     H        0.55960    0.08290    0.95820    1.000
    C259     C        0.55630    0.91630    0.96830    1.000
    C260     C        0.52453    0.82820    0.95970    1.000
    H202     H        0.53820    0.75710    0.97190    1.000
    C261     C        0.47127    0.84460    0.93250    1.000
    H203     H        0.44950    0.78520    0.92770    1.000
    C262     C        0.64407    0.96440    0.99070    1.000
    H204     H        0.63460    0.02230    0.96320    1.000
    C263     C        0.68794    0.84700    0.05800    1.000
    H205     H        0.71560    0.80790    0.08740    1.000
    C264     C        0.63915    0.82490    0.04110    1.000
    H206     H        0.62670    0.76800    0.05540    1.000
    C265     C        0.27836    0.16050    0.38127    1.000
    H207     H        0.31200    0.16050    0.41240    1.000
    C266     C        0.19969    0.12880    0.32970    1.000
    H208     H        0.16670    0.10230    0.31760    1.000
    C267     C        0.21279    0.19180    0.29600    1.000
    H209     H        0.19120    0.21610    0.25720    1.000
    C268     C        0.29565    0.27270    0.31174    1.000
    C269     C        0.28257    0.27970    0.25188    1.000
    H210     H        0.25210    0.24760    0.22310    1.000
    C270     C        0.31422    0.33380    0.23460    1.000
    H211     H        0.30550    0.33770    0.19440    1.000
    C271     C        0.35838    0.38150    0.27700    1.000
    C272     C        0.37072    0.37960    0.33600    1.000
    H212     H        0.40040    0.41480    0.36430    1.000
    C273     C        0.33867    0.32480    0.35390    1.000
    H213     H        0.34660    0.32400    0.39390    1.000
    C274     C        0.44142    0.42230    0.29000    1.000
    C275     C        0.54540    0.39340    0.34514    1.000
    C276     C        0.51500    0.30130    0.31600    1.000
    H214     H        0.52910    0.23230    0.31530    1.000
    C277     C        0.46200    0.31960    0.28780    1.000
    H215     H        0.43990    0.26140    0.26700    1.000
    C278     C        0.63476    0.46100    0.39050    1.000
    H216     H        0.62610    0.53620    0.38440    1.000
    C279     C        0.67844    0.31050    0.41610    1.000
    H217     H        0.70580    0.26060    0.43160    1.000
    C280     C        0.62757    0.28210    0.38880    1.000
    H218     H        0.61420    0.21020    0.38200    1.000
    C281     C        0.27946    0.24870    0.51549    1.000
    Co7      Co       0.24529    0.03317    0.46294    1.000
    N49      N        0.24883    0.98470    0.54518    1.000
    N50      N        0.27543    0.97380    0.64243    1.000
    N51      N        0.61057    0.90200    0.99838    1.000
    N52      N        0.69224    0.93500    0.02649    1.000
    N53      N        0.24039    0.10830    0.38356    1.000
    N54      N        0.26335    0.21360    0.32920    1.000
    N55      N        0.60001    0.37990    0.37333    1.000
    N56      N        0.68254    0.42490    0.41690    1.000
    O25      O        0.39976    0.96760    0.88857    1.000
    O26      O        0.38853    0.43960    0.25781    1.000
    O27      O        0.29951    0.16080    0.51278    1.000
    O28      O        0.30417    0.33620    0.54097    1.000
    C282     C        0.47120    0.50100    0.32010    1.000
    H219     H        0.45710    0.56970    0.32110    1.000
    C283     C        0.52510    0.48760    0.35220    1.000
    H220     H        0.54590    0.54340    0.37770    1.000
    C284     C        0.47080    0.51480    0.29010    1.000
    H221     H        0.45600    0.58310    0.27340    1.000
    C285     C        0.52420    0.49620    0.31750    1.000
    H222     H        0.54580    0.55240    0.31720    1.000
    C286     C        0.46030    0.32640    0.31240    1.000
    H223     H        0.43900    0.26780    0.31060    1.000
    C287     C        0.51470    0.31200    0.34010    1.000
    H224     H        0.52850    0.24220    0.35500    1.000
    C288     C        0.78851    0.49670    0.59990    1.000
    H225     H        0.82130    0.51840    0.60770    1.000
    C289     C        0.70805    0.45320    0.55430    1.000
    H226     H        0.67480    0.43960    0.52410    1.000
    C290     C        0.72376    0.44510    0.61350    1.000
    H227     H        0.70390    0.42450    0.63120    1.000
    C291     C        0.80906    0.47590    0.70589    1.000
    C292     C        0.85902    0.45030    0.72800    1.000
    H228     H        0.87210    0.43390    0.70220    1.000
    C293     C        0.89105    0.44860    0.78960    1.000
    H229     H        0.92560    0.43040    0.80510    1.000
    C294     C        0.87157    0.47380    0.82735    1.000
    C295     C        0.82081    0.50170    0.80440    1.000
    H230     H        0.80790    0.52030    0.83010    1.000
    C296     C        0.78880    0.50240    0.74370    1.000
    H231     H        0.75420    0.52030    0.72810    1.000
    C297     C        0.95188    0.44750    0.91340    1.000
    C298     C        0.98390    0.53640    0.92100    1.000
    H232     H        0.96990    0.60620    0.90630    1.000
    C299     C        0.03763    0.52260    0.95070    1.000
    H233     H        0.05960    0.58290    0.95820    1.000
    C300     C        0.05630    0.41630    0.96830    1.000
    C301     C        0.02453    0.32820    0.95970    1.000
    H234     H        0.03820    0.25710    0.97190    1.000
    C302     C        0.97127    0.34460    0.93250    1.000
    H235     H        0.94950    0.28520    0.92770    1.000
    C303     C        0.14407    0.46440    0.99070    1.000
    H236     H        0.13460    0.52230    0.96320    1.000
    C304     C        0.18794    0.34700    0.05800    1.000
    H237     H        0.21560    0.30790    0.08740    1.000
    C305     C        0.13915    0.32490    0.04110    1.000
    H238     H        0.12670    0.26800    0.05540    1.000
    C306     C        0.77836    0.66050    0.38127    1.000
    H239     H        0.81200    0.66050    0.41240    1.000
    C307     C        0.69969    0.62880    0.32970    1.000
    H240     H        0.66670    0.60230    0.31760    1.000
    C308     C        0.71279    0.69180    0.29600    1.000
    H241     H        0.69120    0.71610    0.25720    1.000
    C309     C        0.79565    0.77270    0.31174    1.000
    C310     C        0.78257    0.77970    0.25188    1.000
    H242     H        0.75210    0.74760    0.22310    1.000
    C311     C        0.81422    0.83380    0.23460    1.000
    H243     H        0.80550    0.83770    0.19440    1.000
    C312     C        0.85838    0.88150    0.27700    1.000
    C313     C        0.87072    0.87960    0.33600    1.000
    H244     H        0.90040    0.91480    0.36430    1.000
    C314     C        0.83867    0.82480    0.35390    1.000
    H245     H        0.84660    0.82400    0.39390    1.000
    C315     C        0.94142    0.92230    0.29000    1.000
    C316     C        0.04540    0.89340    0.34514    1.000
    C317     C        0.01500    0.80130    0.31600    1.000
    H246     H        0.02910    0.73230    0.31530    1.000
    C318     C        0.96200    0.81960    0.28780    1.000
    H247     H        0.93990    0.76140    0.26700    1.000
    C319     C        0.13476    0.96100    0.39050    1.000
    H248     H        0.12610    0.03620    0.38440    1.000
    C320     C        0.17844    0.81050    0.41610    1.000
    H249     H        0.20580    0.76060    0.43160    1.000
    C321     C        0.12757    0.78210    0.38880    1.000
    H250     H        0.11420    0.71020    0.38200    1.000
    C322     C        0.77946    0.74870    0.51549    1.000
    Co8      Co       0.74529    0.53317    0.46294    1.000
    N57      N        0.74883    0.48470    0.54518    1.000
    N58      N        0.77543    0.47380    0.64243    1.000
    N59      N        0.11057    0.40200    0.99838    1.000
    N60      N        0.19224    0.43500    0.02649    1.000
    N61      N        0.74039    0.60830    0.38356    1.000
    N62      N        0.76335    0.71360    0.32920    1.000
    N63      N        0.10001    0.87990    0.37333    1.000
    N64      N        0.18254    0.92490    0.41690    1.000
    O29      O        0.89976    0.46760    0.88857    1.000
    O30      O        0.88853    0.93960    0.25781    1.000
    O31      O        0.79951    0.66080    0.51278    1.000
    O32      O        0.80417    0.83620    0.54097    1.000
    C323     C        0.97120    0.00100    0.32010    1.000
    H251     H        0.95710    0.06970    0.32110    1.000
    C324     C        0.02510    0.98760    0.35220    1.000
    H252     H        0.04590    0.04340    0.37770    1.000
    C325     C        0.97080    0.01480    0.29010    1.000
    H253     H        0.95600    0.08310    0.27340    1.000
    C326     C        0.02420    0.99620    0.31750    1.000
    H254     H        0.04580    0.05240    0.31720    1.000
    C327     C        0.96030    0.82640    0.31240    1.000
    H255     H        0.93900    0.76780    0.31060    1.000
    C328     C        0.01470    0.81200    0.34010    1.000
    H256     H        0.02850    0.74220    0.35500    1.000
