# CIF file generated by openbabel 3.1.0, see https://openbabel.org
data_I
_chemical_name_common 'image0'
_cell_length_a 17.0461
_cell_length_b 21.6229
_cell_length_c 9.8505
_cell_angle_alpha 90
_cell_angle_beta 90
_cell_angle_gamma 90
_space_group_name_H-M_alt 'P 1'
_space_group_name_Hall 'P 1'
loop_
    _symmetry_equiv_pos_as_xyz
    x,y,z
loop_
    _atom_site_label
    _atom_site_type_symbol
    _atom_site_fract_x
    _atom_site_fract_y
    _atom_site_fract_z
    _atom_site_occupancy
    Cu1      Cu       0.66837    0.57816    0.07985    1.000
    Cu2      Cu       0.43225    0.66455    0.31480    1.000
    Cu3      Cu       0.55964    0.45202    0.70442    1.000
    C1       C        0.51380    0.48860    0.54450    1.000
    C2       C        0.60450    0.49480    0.85250    1.000
    C3       C        0.52700    0.62550    0.23760    1.000
    C4       C        0.83350    0.62210    0.13550    1.000
    N1       N        0.63110    0.52490    0.93360    1.000
    N2       N        0.57860    0.61060    0.19170    1.000
    N3       N        0.77770    0.60500    0.11830    1.000
    N4       N        0.48620    0.51140    0.45550    1.000
    Cu4      Cu       0.83163    0.42184    0.57985    1.000
    Cu5      Cu       0.06775    0.33545    0.81480    1.000
    Cu6      Cu       0.94036    0.54798    0.20442    1.000
    C5       C        0.98620    0.51140    0.04450    1.000
    C6       C        0.89550    0.50520    0.35250    1.000
    C7       C        0.97300    0.37450    0.73760    1.000
    C8       C        0.66650    0.37790    0.63550    1.000
    N5       N        0.86890    0.47510    0.43360    1.000
    N6       N        0.92140    0.38940    0.69170    1.000
    N7       N        0.72230    0.39500    0.61830    1.000
    N8       N        0.01380    0.48860    0.95550    1.000
    Cu7      Cu       0.33163    0.07816    0.92015    1.000
    Cu8      Cu       0.56775    0.16455    0.68520    1.000
    Cu9      Cu       0.44036    0.95202    0.29558    1.000
    C9       C        0.48620    0.98860    0.45550    1.000
    C10      C        0.39550    0.99480    0.14750    1.000
    C11      C        0.47300    0.12550    0.76240    1.000
    C12      C        0.16650    0.12210    0.86450    1.000
    N9       N        0.36890    0.02490    0.06640    1.000
    N10      N        0.42140    0.11060    0.80830    1.000
    N11      N        0.22230    0.10500    0.88170    1.000
    N12      N        0.51380    0.01140    0.54450    1.000
    Cu10     Cu       0.16837    0.92184    0.42015    1.000
    Cu11     Cu       0.93225    0.83545    0.18520    1.000
    Cu12     Cu       0.05964    0.04798    0.79558    1.000
    C13      C        0.01380    0.01140    0.95550    1.000
    C14      C        0.10450    0.00520    0.64750    1.000
    C15      C        0.02700    0.87450    0.26240    1.000
    C16      C        0.33350    0.87790    0.36450    1.000
    N13      N        0.13110    0.97510    0.56640    1.000
    N14      N        0.07860    0.88940    0.30830    1.000
    N15      N        0.27770    0.89500    0.38170    1.000
    N16      N        0.98620    0.98860    0.04450    1.000
    Cu13     Cu       0.33163    0.42184    0.92015    1.000
    Cu14     Cu       0.56775    0.33545    0.68520    1.000
    Cu15     Cu       0.44036    0.54798    0.29558    1.000
    C17      C        0.39550    0.50520    0.14750    1.000
    C18      C        0.47300    0.37450    0.76240    1.000
    C19      C        0.16650    0.37790    0.86450    1.000
    N17      N        0.36890    0.47510    0.06640    1.000
    N18      N        0.42140    0.38940    0.80830    1.000
    N19      N        0.22230    0.39500    0.88170    1.000
    Cu16     Cu       0.16837    0.57816    0.42015    1.000
    Cu17     Cu       0.93225    0.66455    0.18520    1.000
    Cu18     Cu       0.05964    0.45202    0.79558    1.000
    C20      C        0.10450    0.49480    0.64750    1.000
    C21      C        0.02700    0.62550    0.26240    1.000
    C22      C        0.33350    0.62210    0.36450    1.000
    N20      N        0.13110    0.52490    0.56640    1.000
    N21      N        0.07860    0.61060    0.30830    1.000
    N22      N        0.27770    0.60500    0.38170    1.000
    Cu19     Cu       0.66837    0.92184    0.07985    1.000
    Cu20     Cu       0.43225    0.83545    0.31480    1.000
    Cu21     Cu       0.55964    0.04798    0.70442    1.000
    C23      C        0.60450    0.00520    0.85250    1.000
    C24      C        0.52700    0.87450    0.23760    1.000
    C25      C        0.83350    0.87790    0.13550    1.000
    N23      N        0.63110    0.97510    0.93360    1.000
    N24      N        0.57860    0.88940    0.19170    1.000
    N25      N        0.77770    0.89500    0.11830    1.000
    Cu22     Cu       0.83163    0.07816    0.57985    1.000
    Cu23     Cu       0.06775    0.16455    0.81480    1.000
    Cu24     Cu       0.94036    0.95202    0.20442    1.000
    C26      C        0.89550    0.99480    0.35250    1.000
    C27      C        0.97300    0.12550    0.73760    1.000
    C28      C        0.66650    0.12210    0.63550    1.000
    N26      N        0.86890    0.02490    0.43360    1.000
    N27      N        0.92140    0.11060    0.69170    1.000
    N28      N        0.72230    0.10500    0.61830    1.000
    Br1      Br       0.46646    0.75000    0.48423    1.000
    Br2      Br       0.38706    0.75000    0.12957    1.000
    Br3      Br       0.03354    0.25000    0.98423    1.000
    Br4      Br       0.11294    0.25000    0.62957    1.000
    Br5      Br       0.53354    0.25000    0.51577    1.000
    Br6      Br       0.61294    0.25000    0.87043    1.000
    Br7      Br       0.96646    0.75000    0.01577    1.000
    Br8      Br       0.88706    0.75000    0.37043    1.000
