# CIF file generated by openbabel 3.1.0, see https://openbabel.org
data_I
_chemical_name_common 'image0'
_cell_length_a 11.609
_cell_length_b 12.227
_cell_length_c 13.554
_cell_angle_alpha 65
_cell_angle_beta 69.14
_cell_angle_gamma 87.75
_space_group_name_H-M_alt 'P 1'
_space_group_name_Hall 'P 1'
loop_
    _symmetry_equiv_pos_as_xyz
    x,y,z
loop_
    _atom_site_label
    _atom_site_type_symbol
    _atom_site_fract_x
    _atom_site_fract_y
    _atom_site_fract_z
    _atom_site_occupancy
    O1       O        0.56190    0.12990    0.86940    1.000
    O2       O        0.49860    0.30060    0.77560    1.000
    C1       C        0.52380    0.22870    0.86370    1.000
    O3       O        0.29080    0.80670    0.51550    1.000
    O4       O        0.28910    0.95370    0.57050    1.000
    C2       C        0.23620    0.87280    0.56050    1.000
    C3       C        0.02640    0.77850    0.59530    1.000
    H1       H        0.06570    0.72110    0.57170    1.000
    C4       C        0.09580    0.86260    0.60430    1.000
    C5       C        0.03750    0.94870    0.64000    1.000
    H2       H        0.08360    0.00450    0.64600    1.000
    O5       O        0.73880    0.05520    0.70880    1.000
    O6       O        0.92020    0.12990    0.69190    1.000
    C6       C        0.84960    0.05210    0.69260    1.000
    C7       C        0.91130    0.95110    0.66650    1.000
    C8       C        0.84270    0.86710    0.65760    1.000
    H3       H        0.75760    0.86880    0.67630    1.000
    C9       C        0.89900    0.78000    0.62110    1.000
    O7       O        0.73310    0.32200    0.60350    1.000
    C10      C        0.78920    0.37770    0.63440    1.000
    C11      C        0.77140    0.50720    0.60860    1.000
    C12      C        0.68260    0.55590    0.56060    1.000
    H4       H        0.63410    0.50740    0.54880    1.000
    C13      C        0.66680    0.67860    0.53040    1.000
    Tb1      Tb       0.42632    0.83031    0.32690    1.000
    O8       O        0.56370    0.84530    0.44410    1.000
    O9       O        0.46810    0.02970    0.31290    1.000
    O10      O        0.52130    0.67150    0.44520    1.000
    O11      O        0.53390    0.18560    0.32330    1.000
    O12      O        0.85950    0.32830    0.69100    1.000
    C14      C        0.50230    0.14120    0.26670    1.000
    C15      C        0.57740    0.73300    0.47140    1.000
    C16      C        0.82540    0.70060    0.60210    1.000
    C17      C        0.50390    0.22570    0.14870    1.000
    C18      C        0.84180    0.57910    0.62900    1.000
    H5       H        0.90080    0.54560    0.66100    1.000
    C19      C        0.50780    0.18540    0.06630    1.000
    H6       H        0.50780    0.10310    0.08440    1.000
    C20      C        0.73800    0.74910    0.55140    1.000
    H7       H        0.72720    0.83050    0.53110    1.000
    C21      C        0.50130    0.34760    0.12200    1.000
    H8       H        0.49950    0.37330    0.17800    1.000
    C22      C        0.50110    0.43370    0.01430    1.000
    C23      C        0.51180    0.26860    0.95680    1.000
    C24      C        0.50870    0.39050    0.93190    1.000
    H9       H        0.51170    0.44550    0.85800    1.000
    O13      O        0.43810    0.87010    0.13060    1.000
    O14      O        0.50140    0.69940    0.22440    1.000
    C25      C        0.47620    0.77130    0.13630    1.000
    O15      O        0.70920    0.19330    0.48450    1.000
    O16      O        0.71090    0.04630    0.42950    1.000
    C26      C        0.76380    0.12720    0.43950    1.000
    C27      C        0.97360    0.22150    0.40470    1.000
    H10      H        0.93430    0.27890    0.42830    1.000
    C28      C        0.90420    0.13740    0.39570    1.000
    C29      C        0.96250    0.05130    0.36000    1.000
    H11      H        0.91640    0.99550    0.35400    1.000
    O17      O        0.26120    0.94480    0.29120    1.000
    O18      O        0.07980    0.87010    0.30810    1.000
    C30      C        0.15040    0.94790    0.30740    1.000
    C31      C        0.08870    0.04890    0.33350    1.000
    C32      C        0.15730    0.13290    0.34240    1.000
    H12      H        0.24240    0.13120    0.32370    1.000
    C33      C        0.10100    0.22000    0.37890    1.000
    O19      O        0.26690    0.67800    0.39650    1.000
    C34      C        0.21080    0.62230    0.36560    1.000
    C35      C        0.22860    0.49280    0.39140    1.000
    C36      C        0.31740    0.44410    0.43940    1.000
    H13      H        0.36590    0.49260    0.45120    1.000
    C37      C        0.33320    0.32140    0.46960    1.000
    Tb2      Tb       0.57368    0.16969    0.67310    1.000
    O20      O        0.43630    0.15470    0.55590    1.000
    O21      O        0.53190    0.97030    0.68710    1.000
    O22      O        0.47870    0.32850    0.55480    1.000
    O23      O        0.46610    0.81440    0.67670    1.000
    O24      O        0.14050    0.67170    0.30900    1.000
    C38      C        0.49770    0.85880    0.73330    1.000
    C39      C        0.42260    0.26700    0.52860    1.000
    C40      C        0.17460    0.29940    0.39790    1.000
    C41      C        0.49610    0.77430    0.85130    1.000
    C42      C        0.15820    0.42090    0.37100    1.000
    H14      H        0.09920    0.45440    0.33900    1.000
    C43      C        0.49220    0.81460    0.93370    1.000
    H15      H        0.49220    0.89690    0.91560    1.000
    C44      C        0.26200    0.25090    0.44860    1.000
    H16      H        0.27280    0.16950    0.46890    1.000
    C45      C        0.49870    0.65240    0.87800    1.000
    H17      H        0.50050    0.62670    0.82200    1.000
    C46      C        0.49890    0.56630    0.98570    1.000
    C47      C        0.48820    0.73140    0.04320    1.000
    C48      C        0.49130    0.60950    0.06810    1.000
    H18      H        0.48830    0.55450    0.14200    1.000
    Tb3      Tb       0.50000    0.00000    0.50000    1.000
