# CIF file generated by openbabel 3.1.0, see https://openbabel.org
data_I
_chemical_name_common 'YAZZEG_clean'
_cell_length_a 7.3494
_cell_length_b 11.475
_cell_length_c 16.1852
_cell_angle_alpha 78.799
_cell_angle_beta 82.483
_cell_angle_gamma 79.955
_space_group_name_H-M_alt 'P 1'
_space_group_name_Hall 'P 1'
loop_
    _symmetry_equiv_pos_as_xyz
    x,y,z
loop_
    _atom_site_label
    _atom_site_type_symbol
    _atom_site_fract_x
    _atom_site_fract_y
    _atom_site_fract_z
    _atom_site_occupancy
    Dy1      Dy       0.05846    0.93402    0.22637    1.000
    Dy2      Dy       0.55571    0.73545    0.23603    1.000
    Dy3      Dy       0.94154    0.06598    0.77363    1.000
    Dy4      Dy       0.44429    0.26456    0.76397    1.000
    H1       H        0.00530    0.79290    0.03300    1.000
    H2       H        0.42900    0.26940    0.02010    1.000
    H3       H        0.15370    0.74440    0.44060    1.000
    H4       H        0.15120    0.12340    0.40320    1.000
    H5       H        0.12540    0.61470    0.89320    1.000
    H6       H        0.34980    0.45880    0.15330    1.000
    H7       H        0.78130    0.49460    0.41070    1.000
    H8       H        0.61490    0.82070    0.45300    1.000
    H9       H        0.79730    0.04590    0.97030    1.000
    H10      H        0.99470    0.20710    0.96700    1.000
    H11      H        0.57100    0.73060    0.97990    1.000
    H12      H        0.84630    0.25560    0.55940    1.000
    H13      H        0.84880    0.87660    0.59680    1.000
    H14      H        0.87460    0.38530    0.10680    1.000
    H15      H        0.65020    0.54120    0.84670    1.000
    H16      H        0.21870    0.50540    0.58930    1.000
    H17      H        0.38510    0.17930    0.54700    1.000
    H18      H        0.20270    0.95410    0.02970    1.000
    C1       C        0.20600    0.60740    0.08730    1.000
    C2       C        0.12970    0.65110    0.01000    1.000
    C3       C        0.16530    0.58260    0.94630    1.000
    C4       C        0.26040    0.46620    0.96170    1.000
    C5       C        0.32310    0.41850    0.04050    1.000
    C6       C        0.30110    0.48940    0.10190    1.000
    C7       C        0.19210    0.68580    0.15200    1.000
    C8       C        0.29860    0.39520    0.89210    1.000
    C9       C        0.09870    0.59590    0.48580    1.000
    C10      C        0.96710    0.59380    0.43100    1.000
    C11      C        0.86940    0.49700    0.44640    1.000
    C12      C        0.92850    0.69160    0.35700    1.000
    C13      C        0.35020    0.07590    0.46400    1.000
    C14      C        0.56850    0.89270    0.47200    1.000
    C15      C        0.41790    0.96810    0.43610    1.000
    C16      C        0.33740    0.93060    0.36630    1.000
    C17      C        0.67690    0.02790    0.98160    1.000
    C18      C        0.43290    0.95280    0.08540    1.000
    C19      C        0.61320    0.98290    0.06470    1.000
    C20      C        0.74790    0.96510    0.12850    1.000
    C21      C        0.79400    0.39260    0.91270    1.000
    C22      C        0.87030    0.34890    0.99000    1.000
    C23      C        0.83470    0.41740    0.05370    1.000
    C24      C        0.73960    0.53380    0.03830    1.000
    C25      C        0.67690    0.58150    0.95950    1.000
    C26      C        0.69890    0.51060    0.89810    1.000
    C27      C        0.80790    0.31420    0.84800    1.000
    C28      C        0.70140    0.60480    0.10790    1.000
    C29      C        0.90130    0.40410    0.51420    1.000
    C30      C        0.03290    0.40620    0.56900    1.000
    C31      C        0.13060    0.50300    0.55360    1.000
    C32      C        0.07150    0.30840    0.64300    1.000
    C33      C        0.64980    0.92410    0.53600    1.000
    C34      C        0.43150    0.10730    0.52800    1.000
    C35      C        0.58210    0.03190    0.56390    1.000
    C36      C        0.66260    0.06940    0.63370    1.000
    C37      C        0.32310    0.97210    0.01840    1.000
    C38      C        0.56710    0.04720    0.91460    1.000
    C39      C        0.38680    0.01710    0.93530    1.000
    C40      C        0.25210    0.03490    0.87150    1.000
    O1       O        0.07420    0.78030    0.14550    1.000
    O2       O        0.30210    0.65630    0.20938    1.000
    O3       O        0.26710    0.44250    0.81750    1.000
    O4       O        0.37230    0.28560    0.90860    1.000
    O5       O        0.01810    0.75820    0.99240    1.000
    O6       O        0.41880    0.30380    0.06080    1.000
    O7       O        0.02130    0.77870    0.34341    1.000
    O8       O        0.80890    0.68250    0.31260    1.000
    O9       O        0.20230    0.68680    0.47310    1.000
    O10      O        0.41100    0.83360    0.34210    1.000
    O11      O        0.19710    0.99580    0.33600    1.000
    O12      O        0.20310    0.15530    0.43270    1.000
    O13      O        0.72880    0.89350    0.19893    1.000
    O14      O        0.88680    0.01880    0.11176    1.000
    O15      O        0.36650    0.90610    0.16515    1.000
    O16      O        0.92580    0.21970    0.85450    1.000
    O17      O        0.69790    0.34370    0.79062    1.000
    O18      O        0.73290    0.55750    0.18250    1.000
    O19      O        0.62770    0.71440    0.09140    1.000
    O20      O        0.98190    0.24180    0.00760    1.000
    O21      O        0.58120    0.69620    0.93920    1.000
    O22      O        0.97870    0.22130    0.65659    1.000
    O23      O        0.19110    0.31750    0.68740    1.000
    O24      O        0.79770    0.31320    0.52690    1.000
    O25      O        0.58900    0.16640    0.65790    1.000
    O26      O        0.80290    0.00420    0.66400    1.000
    O27      O        0.79690    0.84470    0.56730    1.000
    O28      O        0.27120    0.10650    0.80107    1.000
    O29      O        0.11320    0.98120    0.88824    1.000
    O30      O        0.63350    0.09390    0.83485    1.000
