# CIF file generated by openbabel 3.1.0, see https://openbabel.org
data_I
_chemical_name_common 'image0'
_cell_length_a 12.262
_cell_length_b 13.572
_cell_length_c 24.934
_cell_angle_alpha 90
_cell_angle_beta 90
_cell_angle_gamma 90
_space_group_name_H-M_alt 'P 1'
_space_group_name_Hall 'P 1'
loop_
    _symmetry_equiv_pos_as_xyz
    x,y,z
loop_
    _atom_site_label
    _atom_site_type_symbol
    _atom_site_fract_x
    _atom_site_fract_y
    _atom_site_fract_z
    _atom_site_occupancy
    O1       O        0.61160    0.91750    0.73070    1.000
    O2       O        0.60030    0.00650    0.80270    1.000
    O3       O        0.86060    0.95820    0.94960    1.000
    O4       O        0.00260    0.87530    0.93297    1.000
    O5       O        0.02790    0.14910    0.55333    1.000
    O6       O        0.88150    0.07110    0.54690    1.000
    O7       O        0.58230    0.12420    0.67540    1.000
    O8       O        0.62360    0.21230    0.75700    1.000
    O9       O        0.87660    0.65870    0.77370    1.000
    O10      O        0.95070    0.41460    0.68710    1.000
    C1       C        0.77510    0.90510    0.84920    1.000
    H1       H        0.74790    0.96100    0.86610    1.000
    C2       C        0.85500    0.85540    0.87170    1.000
    C3       C        0.89350    0.76820    0.84890    1.000
    H2       H        0.95030    0.73380    0.86510    1.000
    C4       C        0.84790    0.73370    0.80310    1.000
    C5       C        0.76490    0.79330    0.77860    1.000
    H3       H        0.73420    0.77350    0.74630    1.000
    C6       C        0.73150    0.87600    0.80160    1.000
    C7       C        0.64290    0.96110    0.77940    1.000
    C8       C        0.91120    0.89370    0.92040    1.000
    C9       C        0.89270    0.34410    0.67280    1.000
    C10      C        0.93660    0.28340    0.62630    1.000
    H4       H        0.00350    0.30020    0.61130    1.000
    C11      C        0.88000    0.20410    0.60570    1.000
    C12      C        0.77570    0.17840    0.62420    1.000
    H5       H        0.73140    0.13470    0.60550    1.000
    C13      C        0.74260    0.22090    0.67100    1.000
    C14      C        0.79720    0.31180    0.69350    1.000
    H6       H        0.76490    0.34580    0.72180    1.000
    C15      C        0.92190    0.13400    0.56210    1.000
    C16      C        0.64740    0.18100    0.70100    1.000
    C17      C        0.96480    0.60050    0.79580    1.000
    H7       H        0.94060    0.56520    0.82740    1.000
    H8       H        0.02560    0.64250    0.80560    1.000
    C18      C        0.90590    0.46690    0.73070    1.000
    H9       H        0.87950    0.42240    0.75820    1.000
    H10      H        0.84660    0.50930    0.71920    1.000
    O11      O        0.38840    0.08250    0.23070    1.000
    O12      O        0.39970    0.99350    0.30270    1.000
    O13      O        0.13940    0.04180    0.44960    1.000
    O14      O        0.99740    0.12470    0.43297    1.000
    O15      O        0.97210    0.85090    0.05333    1.000
    O16      O        0.11850    0.92890    0.04690    1.000
    O17      O        0.41770    0.87580    0.17540    1.000
    O18      O        0.37640    0.78770    0.25700    1.000
    O19      O        0.12340    0.34130    0.27370    1.000
    O20      O        0.04930    0.58540    0.18710    1.000
    C19      C        0.22490    0.09490    0.34920    1.000
    H11      H        0.25210    0.03900    0.36610    1.000
    C20      C        0.14500    0.14460    0.37170    1.000
    C21      C        0.10650    0.23180    0.34890    1.000
    H12      H        0.04970    0.26620    0.36510    1.000
    C22      C        0.15210    0.26630    0.30310    1.000
    C23      C        0.23510    0.20670    0.27860    1.000
    H13      H        0.26580    0.22650    0.24630    1.000
    C24      C        0.26850    0.12400    0.30160    1.000
    C25      C        0.35710    0.03890    0.27940    1.000
    C26      C        0.08880    0.10630    0.42040    1.000
    C27      C        0.10730    0.65590    0.17280    1.000
    C28      C        0.06340    0.71660    0.12630    1.000
    H14      H        0.99650    0.69980    0.11130    1.000
    C29      C        0.12000    0.79590    0.10570    1.000
    C30      C        0.22430    0.82160    0.12420    1.000
    H15      H        0.26860    0.86530    0.10550    1.000
    C31      C        0.25740    0.77910    0.17100    1.000
    C32      C        0.20280    0.68820    0.19350    1.000
    H16      H        0.23510    0.65420    0.22180    1.000
    C33      C        0.07810    0.86600    0.06210    1.000
    C34      C        0.35260    0.81900    0.20100    1.000
    C35      C        0.03520    0.39950    0.29580    1.000
    H17      H        0.05940    0.43480    0.32740    1.000
    H18      H        0.97440    0.35750    0.30560    1.000
    C36      C        0.09410    0.53310    0.23070    1.000
    H19      H        0.12050    0.57760    0.25820    1.000
    H20      H        0.15340    0.49070    0.21920    1.000
    O21      O        0.38840    0.91750    0.76930    1.000
    O22      O        0.39970    0.00650    0.69730    1.000
    O23      O        0.13940    0.95820    0.55040    1.000
    O24      O        0.99740    0.87530    0.56703    1.000
    O25      O        0.97210    0.14910    0.94667    1.000
    O26      O        0.11850    0.07110    0.95310    1.000
    O27      O        0.41770    0.12420    0.82460    1.000
    O28      O        0.37640    0.21230    0.74300    1.000
    O29      O        0.12340    0.65870    0.72630    1.000
    O30      O        0.04930    0.41460    0.81290    1.000
    C37      C        0.22490    0.90510    0.65080    1.000
    H21      H        0.25210    0.96100    0.63390    1.000
    C38      C        0.14500    0.85540    0.62830    1.000
    C39      C        0.10650    0.76820    0.65110    1.000
    H22      H        0.04970    0.73380    0.63490    1.000
    C40      C        0.15210    0.73370    0.69690    1.000
    C41      C        0.23510    0.79330    0.72140    1.000
    H23      H        0.26580    0.77350    0.75370    1.000
    C42      C        0.26850    0.87600    0.69840    1.000
    C43      C        0.35710    0.96110    0.72060    1.000
    C44      C        0.08880    0.89370    0.57960    1.000
    C45      C        0.10730    0.34410    0.82720    1.000
    C46      C        0.06340    0.28340    0.87370    1.000
    H24      H        0.99650    0.30020    0.88870    1.000
    C47      C        0.12000    0.20410    0.89430    1.000
    C48      C        0.22430    0.17840    0.87580    1.000
    H25      H        0.26860    0.13470    0.89450    1.000
    C49      C        0.25740    0.22090    0.82900    1.000
    C50      C        0.20280    0.31180    0.80650    1.000
    H26      H        0.23510    0.34580    0.77820    1.000
    C51      C        0.07810    0.13400    0.93790    1.000
    C52      C        0.35260    0.18100    0.79900    1.000
    C53      C        0.03520    0.60050    0.70420    1.000
    H27      H        0.05940    0.56520    0.67260    1.000
    H28      H        0.97440    0.64250    0.69440    1.000
    C54      C        0.09410    0.46690    0.76930    1.000
    H29      H        0.12050    0.42240    0.74180    1.000
    H30      H        0.15340    0.50930    0.78080    1.000
    O31      O        0.61160    0.08250    0.26930    1.000
    O32      O        0.60030    0.99350    0.19730    1.000
    O33      O        0.86060    0.04180    0.05040    1.000
    O34      O        0.00260    0.12470    0.06703    1.000
    O35      O        0.02790    0.85090    0.44667    1.000
    O36      O        0.88150    0.92890    0.45310    1.000
    O37      O        0.58230    0.87580    0.32460    1.000
    O38      O        0.62360    0.78770    0.24300    1.000
    O39      O        0.87660    0.34130    0.22630    1.000
    O40      O        0.95070    0.58540    0.31290    1.000
    C55      C        0.77510    0.09490    0.15080    1.000
    H31      H        0.74790    0.03900    0.13390    1.000
    C56      C        0.85500    0.14460    0.12830    1.000
    C57      C        0.89350    0.23180    0.15110    1.000
    H32      H        0.95030    0.26620    0.13490    1.000
    C58      C        0.84790    0.26630    0.19690    1.000
    C59      C        0.76490    0.20670    0.22140    1.000
    H33      H        0.73420    0.22650    0.25370    1.000
    C60      C        0.73150    0.12400    0.19840    1.000
    C61      C        0.64290    0.03890    0.22060    1.000
    C62      C        0.91120    0.10630    0.07960    1.000
    C63      C        0.89270    0.65590    0.32720    1.000
    C64      C        0.93660    0.71660    0.37370    1.000
    H34      H        0.00350    0.69980    0.38870    1.000
    C65      C        0.88000    0.79590    0.39430    1.000
    C66      C        0.77570    0.82160    0.37580    1.000
    H35      H        0.73140    0.86530    0.39450    1.000
    C67      C        0.74260    0.77910    0.32900    1.000
    C68      C        0.79720    0.68820    0.30650    1.000
    H36      H        0.76490    0.65420    0.27820    1.000
    C69      C        0.92190    0.86600    0.43790    1.000
    C70      C        0.64740    0.81900    0.29900    1.000
    C71      C        0.96480    0.39950    0.20420    1.000
    H37      H        0.94060    0.43480    0.17260    1.000
    H38      H        0.02560    0.35750    0.19440    1.000
    C72      C        0.90590    0.53310    0.26930    1.000
    H39      H        0.87950    0.57760    0.24180    1.000
    H40      H        0.84660    0.49070    0.28080    1.000
    In1      In       0.50000    0.08757    0.75000    1.000
    In2      In       0.50000    0.91243    0.25000    1.000
    In3      In       0.99413    0.00000    0.00000    1.000
    In4      In       0.00587    0.00000    0.50000    1.000
    C73      C        0.00000    0.52530    0.75000    1.000
    C74      C        0.00000    0.47470    0.25000    1.000
