# CIF file generated by openbabel 3.1.0, see https://openbabel.org
data_I
_chemical_name_common 'image0'
_cell_length_a 11.8051
_cell_length_b 14.1508
_cell_length_c 7.6915
_cell_angle_alpha 90
_cell_angle_beta 91.038
_cell_angle_gamma 90
_space_group_name_H-M_alt 'P 1'
_space_group_name_Hall 'P 1'
loop_
    _symmetry_equiv_pos_as_xyz
    x,y,z
loop_
    _atom_site_label
    _atom_site_type_symbol
    _atom_site_fract_x
    _atom_site_fract_y
    _atom_site_fract_z
    _atom_site_occupancy
    O1       O        0.37660    0.39270    0.22310    1.000
    O2       O        0.40430    0.43870    0.48840    1.000
    N1       N        0.28880    0.22430    0.31710    1.000
    N2       N        0.24300    0.15700    0.07900    1.000
    C1       C        0.36630    0.38070    0.37720    1.000
    C2       C        0.30010    0.29780    0.44750    1.000
    H1       H        0.33870    0.27270    0.54980    1.000
    H2       H        0.22540    0.31890    0.48130    1.000
    C3       C        0.35920    0.15070    0.29960    1.000
    H3       H        0.41890    0.13600    0.37540    1.000
    C4       C        0.33090    0.10150    0.15740    1.000
    H4       H        0.36120    0.04480    0.11870    1.000
    C5       C        0.22090    0.22750    0.17960    1.000
    H5       H        0.16580    0.27320    0.15830    1.000
    C6       C        0.18130    0.13020    0.92030    1.000
    H6       H        0.23320    0.10090    0.84020    1.000
    H7       H        0.15040    0.18640    0.86500    1.000
    C7       C        0.08620    0.06230    0.95890    1.000
    C8       C        0.98270    0.09790    0.99690    1.000
    H8       H        0.96980    0.16270    0.99670    1.000
    C9       C        0.89320    0.03260    0.03760    1.000
    H9       H        0.82120    0.05520    0.06160    1.000
    O3       O        0.40580    0.33290    0.86990    1.000
    H10      H        0.38910    0.28200    0.81610    1.000
    H11      H        0.45410    0.31920    0.95350    1.000
    O4       O        0.32370    0.38530    0.86380    1.000
    H12      H        0.24110    0.39820    0.88520    1.000
    H13      H        0.34760    0.42780    0.93400    1.000
    O5       O        0.62340    0.39270    0.27690    1.000
    O6       O        0.59570    0.43870    0.01160    1.000
    N3       N        0.71120    0.22430    0.18290    1.000
    N4       N        0.75700    0.15700    0.42100    1.000
    C10      C        0.63370    0.38070    0.12280    1.000
    C11      C        0.69990    0.29780    0.05250    1.000
    H14      H        0.66130    0.27270    0.95020    1.000
    H15      H        0.77460    0.31890    0.01870    1.000
    C12      C        0.64080    0.15070    0.20040    1.000
    H16      H        0.58110    0.13600    0.12460    1.000
    C13      C        0.66910    0.10150    0.34260    1.000
    H17      H        0.63880    0.04480    0.38130    1.000
    C14      C        0.77910    0.22750    0.32040    1.000
    H18      H        0.83420    0.27320    0.34170    1.000
    C15      C        0.81870    0.13020    0.57970    1.000
    H19      H        0.76680    0.10090    0.65980    1.000
    H20      H        0.84960    0.18640    0.63500    1.000
    C16      C        0.91380    0.06230    0.54110    1.000
    C17      C        0.01730    0.09790    0.50310    1.000
    H21      H        0.03020    0.16270    0.50330    1.000
    C18      C        0.10680    0.03260    0.46240    1.000
    H22      H        0.17880    0.05520    0.43840    1.000
    O7       O        0.59420    0.33290    0.63010    1.000
    H23      H        0.61090    0.28200    0.68390    1.000
    H24      H        0.54590    0.31920    0.54650    1.000
    O8       O        0.67630    0.38530    0.63620    1.000
    H25      H        0.75890    0.39820    0.61480    1.000
    H26      H        0.65240    0.42780    0.56600    1.000
    O9       O        0.62340    0.60730    0.77690    1.000
    O10      O        0.59570    0.56130    0.51160    1.000
    N5       N        0.71120    0.77570    0.68290    1.000
    N6       N        0.75700    0.84300    0.92100    1.000
    C19      C        0.63370    0.61930    0.62280    1.000
    C20      C        0.69990    0.70220    0.55250    1.000
    H27      H        0.66130    0.72730    0.45020    1.000
    H28      H        0.77460    0.68110    0.51870    1.000
    C21      C        0.64080    0.84930    0.70040    1.000
    H29      H        0.58110    0.86400    0.62460    1.000
    C22      C        0.66910    0.89850    0.84260    1.000
    H30      H        0.63880    0.95520    0.88130    1.000
    C23      C        0.77910    0.77250    0.82040    1.000
    H31      H        0.83420    0.72680    0.84170    1.000
    C24      C        0.81870    0.86980    0.07970    1.000
    H32      H        0.76680    0.89910    0.15980    1.000
    H33      H        0.84960    0.81360    0.13500    1.000
    C25      C        0.91380    0.93770    0.04110    1.000
    C26      C        0.01730    0.90210    0.00310    1.000
    H34      H        0.03020    0.83730    0.00330    1.000
    C27      C        0.10680    0.96740    0.96240    1.000
    H35      H        0.17880    0.94480    0.93840    1.000
    O11      O        0.59420    0.66710    0.13010    1.000
    H36      H        0.61090    0.71800    0.18390    1.000
    H37      H        0.54590    0.68080    0.04650    1.000
    O12      O        0.67630    0.61470    0.13620    1.000
    H38      H        0.75890    0.60180    0.11480    1.000
    H39      H        0.65240    0.57220    0.06600    1.000
    O13      O        0.37660    0.60730    0.72310    1.000
    O14      O        0.40430    0.56130    0.98840    1.000
    N7       N        0.28880    0.77570    0.81710    1.000
    N8       N        0.24300    0.84300    0.57900    1.000
    C28      C        0.36630    0.61930    0.87720    1.000
    C29      C        0.30010    0.70220    0.94750    1.000
    H40      H        0.33870    0.72730    0.04980    1.000
    H41      H        0.22540    0.68110    0.98130    1.000
    C30      C        0.35920    0.84930    0.79960    1.000
    H42      H        0.41890    0.86400    0.87540    1.000
    C31      C        0.33090    0.89850    0.65740    1.000
    H43      H        0.36120    0.95520    0.61870    1.000
    C32      C        0.22090    0.77250    0.67960    1.000
    H44      H        0.16580    0.72680    0.65830    1.000
    C33      C        0.18130    0.86980    0.42030    1.000
    H45      H        0.23320    0.89910    0.34020    1.000
    H46      H        0.15040    0.81360    0.36500    1.000
    C34      C        0.08620    0.93770    0.45890    1.000
    C35      C        0.98270    0.90210    0.49690    1.000
    H47      H        0.96980    0.83730    0.49670    1.000
    C36      C        0.89320    0.96740    0.53760    1.000
    H48      H        0.82120    0.94480    0.56160    1.000
    O15      O        0.40580    0.66710    0.36990    1.000
    H49      H        0.38910    0.71800    0.31610    1.000
    H50      H        0.45410    0.68080    0.45350    1.000
    O16      O        0.32370    0.61470    0.36380    1.000
    H51      H        0.24110    0.60180    0.38520    1.000
    H52      H        0.34760    0.57220    0.43400    1.000
    Ca1      Ca       0.50000    0.46819    0.75000    1.000
    Ca2      Ca       0.50000    0.53181    0.25000    1.000
