# CIF file generated by openbabel 3.1.0, see https://openbabel.org
data_I
_chemical_name_common 'image0'
_cell_length_a 9.3139
_cell_length_b 9.3139
_cell_length_c 13.3133
_cell_angle_alpha 90
_cell_angle_beta 90
_cell_angle_gamma 120
_space_group_name_H-M_alt 'P 1'
_space_group_name_Hall 'P 1'
loop_
    _symmetry_equiv_pos_as_xyz
    x,y,z
loop_
    _atom_site_label
    _atom_site_type_symbol
    _atom_site_fract_x
    _atom_site_fract_y
    _atom_site_fract_z
    _atom_site_occupancy
    N1       N        0.18610    0.85390    0.85080    1.000
    C1       C        0.27630    0.99540    0.80060    1.000
    H1       H        0.33640    0.09350    0.83650    1.000
    C2       C        0.28300    0.00040    0.69690    1.000
    H2       H        0.34930    0.10070    0.66430    1.000
    C3       C        0.19280    0.85870    0.64130    1.000
    C4       C        0.09480    0.71060    0.69580    1.000
    H3       H        0.02900    0.61190    0.66160    1.000
    C5       C        0.09650    0.71190    0.79800    1.000
    H4       H        0.03450    0.61270    0.83250    1.000
    C6       C        0.25410    0.86000    0.53330    1.000
    H5       H        0.35020    0.86040    0.51360    1.000
    C7       C        0.12320    0.86100    0.53330    1.000
    H6       H        0.02720    0.86220    0.48440    1.000
    N2       N        0.14610    0.33220    0.85080    1.000
    C8       C        0.00460    0.28090    0.80060    1.000
    H7       H        0.90650    0.24290    0.83650    1.000
    C9       C        0.99960    0.28260    0.69690    1.000
    H8       H        0.89930    0.24860    0.66430    1.000
    C10      C        0.14130    0.33410    0.64130    1.000
    C11      C        0.28940    0.38420    0.69580    1.000
    H9       H        0.38810    0.41710    0.66160    1.000
    C12      C        0.28810    0.38460    0.79800    1.000
    H10      H        0.38730    0.42180    0.83250    1.000
    C13      C        0.14000    0.39410    0.53330    1.000
    H11      H        0.13960    0.48980    0.51360    1.000
    C14      C        0.13900    0.26220    0.53330    1.000
    H12      H        0.13780    0.16500    0.48440    1.000
    N3       N        0.66780    0.81390    0.85080    1.000
    C15      C        0.71910    0.72370    0.80060    1.000
    H13      H        0.75710    0.66360    0.83650    1.000
    C16      C        0.71740    0.71700    0.69690    1.000
    H14      H        0.75140    0.65070    0.66430    1.000
    C17      C        0.66590    0.80720    0.64130    1.000
    C18      C        0.61580    0.90520    0.69580    1.000
    H15      H        0.58290    0.97100    0.66160    1.000
    C19      C        0.61540    0.90350    0.79800    1.000
    H16      H        0.57820    0.96550    0.83250    1.000
    C20      C        0.60590    0.74590    0.53330    1.000
    H17      H        0.51020    0.64980    0.51360    1.000
    C21      C        0.73780    0.87680    0.53330    1.000
    H18      H        0.83500    0.97280    0.48440    1.000
    N4       N        0.18610    0.85390    0.14920    1.000
    C22      C        0.27630    0.99540    0.19940    1.000
    H19      H        0.33640    0.09350    0.16350    1.000
    C23      C        0.28300    0.00040    0.30310    1.000
    H20      H        0.34930    0.10070    0.33570    1.000
    C24      C        0.19280    0.85870    0.35870    1.000
    C25      C        0.09480    0.71060    0.30420    1.000
    H21      H        0.02900    0.61190    0.33840    1.000
    C26      C        0.09650    0.71190    0.20200    1.000
    H22      H        0.03450    0.61270    0.16750    1.000
    C27      C        0.25410    0.86000    0.46670    1.000
    H23      H        0.35020    0.86040    0.48640    1.000
    C28      C        0.12320    0.86100    0.46670    1.000
    H24      H        0.02720    0.86220    0.51560    1.000
    N5       N        0.14610    0.33220    0.14920    1.000
    C29      C        0.00460    0.28090    0.19940    1.000
    H25      H        0.90650    0.24290    0.16350    1.000
    C30      C        0.99960    0.28260    0.30310    1.000
    H26      H        0.89930    0.24860    0.33570    1.000
    C31      C        0.14130    0.33410    0.35870    1.000
    C32      C        0.28940    0.38420    0.30420    1.000
    H27      H        0.38810    0.41710    0.33840    1.000
    C33      C        0.28810    0.38460    0.20200    1.000
    H28      H        0.38730    0.42180    0.16750    1.000
    C34      C        0.14000    0.39410    0.46670    1.000
    H29      H        0.13960    0.48980    0.48640    1.000
    C35      C        0.13900    0.26220    0.46670    1.000
    H30      H        0.13780    0.16500    0.51560    1.000
    N6       N        0.66780    0.81390    0.14920    1.000
    C36      C        0.71910    0.72370    0.19940    1.000
    H31      H        0.75710    0.66360    0.16350    1.000
    C37      C        0.71740    0.71700    0.30310    1.000
    H32      H        0.75140    0.65070    0.33570    1.000
    C38      C        0.66590    0.80720    0.35870    1.000
    C39      C        0.61580    0.90520    0.30420    1.000
    H33      H        0.58290    0.97100    0.33840    1.000
    C40      C        0.61540    0.90350    0.20200    1.000
    H34      H        0.57820    0.96550    0.16750    1.000
    C41      C        0.60590    0.74590    0.46670    1.000
    H35      H        0.51020    0.64980    0.48640    1.000
    C42      C        0.73780    0.87680    0.46670    1.000
    H36      H        0.83500    0.97280    0.51560    1.000
    Cu1      Cu       0.18143    0.85091    0.00000    1.000
    O1       O        0.18540    0.64360    0.00000    1.000
    O2       O        0.89110    0.84330    0.00000    1.000
    Cu2      Cu       0.14909    0.33052    0.00000    1.000
    O3       O        0.35640    0.54180    0.00000    1.000
    O4       O        0.15670    0.04780    0.00000    1.000
    Cu3      Cu       0.66948    0.81857    0.00000    1.000
    O5       O        0.45820    0.81460    0.00000    1.000
    O6       O        0.95220    0.10890    0.00000    1.000
    C43      C        0.33333    0.66667    0.00000    1.000
    C44      C        0.00000    0.00000    0.00000    1.000
