# CIF file generated by openbabel 3.1.0, see https://openbabel.org
data_I
_chemical_name_common 'image0'
_cell_length_a 17.0298
_cell_length_b 18.8904
_cell_length_c 16.7611
_cell_angle_alpha 90
_cell_angle_beta 112.447
_cell_angle_gamma 90
_space_group_name_H-M_alt 'P 1'
_space_group_name_Hall 'P 1'
loop_
    _symmetry_equiv_pos_as_xyz
    x,y,z
loop_
    _atom_site_label
    _atom_site_type_symbol
    _atom_site_fract_x
    _atom_site_fract_y
    _atom_site_fract_z
    _atom_site_occupancy
    Zn1      Zn       0.24828    0.37168    0.41939    1.000
    Li1      Li       0.08210    0.38330    0.24700    1.000
    N1       N        0.34165    0.36492    0.53979    1.000
    C1       C        0.38743    0.30652    0.57197    1.000
    H1       H        0.37660    0.26540    0.53670    1.000
    C2       C        0.44937    0.30342    0.65382    1.000
    H2       H        0.48020    0.26090    0.67440    1.000
    C3       C        0.46640    0.36324    0.70605    1.000
    C4       C        0.41859    0.42355    0.67277    1.000
    H3       H        0.42800    0.46540    0.70660    1.000
    C5       C        0.35733    0.42239    0.59030    1.000
    H4       H        0.32490    0.46400    0.56840    1.000
    O1       O        0.25717    0.28280    0.36914    1.000
    O2       O        0.14348    0.29964    0.24782    1.000
    O3       O        0.34427    0.96140    0.22616    1.000
    O4       O        0.21846    0.96051    0.11749    1.000
    C6       C        0.20541    0.26363    0.29422    1.000
    C7       C        0.22292    0.19315    0.26407    1.000
    C8       C        0.17542    0.16997    0.18100    1.000
    C9       C        0.19020    0.10297    0.15380    1.000
    C10      C        0.25406    0.05990    0.21011    1.000
    C11      C        0.30069    0.08420    0.29301    1.000
    H5       H        0.34400    0.05510    0.33170    1.000
    C12      C        0.28544    0.14941    0.32005    1.000
    H6       H        0.31770    0.16480    0.37720    1.000
    C13      C        0.27466    0.98939    0.18394    1.000
    N2       N        0.12390    0.21230    0.11440    1.000
    H7       H        0.11940    0.25780    0.12310    1.000
    H8       H        0.09560    0.19370    0.06320    1.000
    O5       O        0.15492    0.39447    0.45399    1.000
    O6       O        0.03291    0.38226    0.34054    1.000
    C14      C        0.07665    0.40677    0.41375    1.000
    C15      C        0.03646    0.45406    0.45868    1.000
    C16      C        0.95253    0.44400    0.45042    1.000
    C17      C        0.91605    0.48951    0.49123    1.000
    N3       N        0.90150    0.39220    0.40560    1.000
    H9       H        0.84930    0.38920    0.40390    1.000
    H10      H        0.91990    0.36110    0.37780    1.000
    N4       N        0.83770    0.46810    0.48850    1.000
    H11      H        0.81510    0.42840    0.46230    1.000
    H12      H        0.81030    0.49410    0.51300    1.000
    N5       N        0.13190    0.08230    0.07290    1.000
    H13      H        0.13380    0.03920    0.05390    1.000
    H14      H        0.09330    0.11250    0.04100    1.000
    Zn2      Zn       0.74828    0.87168    0.41939    1.000
    Li2      Li       0.58210    0.88330    0.24700    1.000
    N6       N        0.84165    0.86492    0.53979    1.000
    C18      C        0.88743    0.80652    0.57197    1.000
    H15      H        0.87660    0.76540    0.53670    1.000
    C19      C        0.94937    0.80342    0.65382    1.000
    H16      H        0.98020    0.76090    0.67440    1.000
    C20      C        0.96640    0.86324    0.70605    1.000
    C21      C        0.91859    0.92355    0.67277    1.000
    H17      H        0.92800    0.96540    0.70660    1.000
    C22      C        0.85733    0.92239    0.59030    1.000
    H18      H        0.82490    0.96400    0.56840    1.000
    O7       O        0.75717    0.78280    0.36914    1.000
    O8       O        0.64348    0.79964    0.24782    1.000
    O9       O        0.84427    0.46140    0.22616    1.000
    O10      O        0.71846    0.46051    0.11749    1.000
    C23      C        0.70541    0.76363    0.29422    1.000
    C24      C        0.72292    0.69315    0.26407    1.000
    C25      C        0.67542    0.66997    0.18100    1.000
    C26      C        0.69020    0.60297    0.15380    1.000
    C27      C        0.75406    0.55990    0.21011    1.000
    C28      C        0.80069    0.58420    0.29301    1.000
    H19      H        0.84400    0.55510    0.33170    1.000
    C29      C        0.78544    0.64941    0.32005    1.000
    H20      H        0.81770    0.66480    0.37720    1.000
    C30      C        0.77466    0.48939    0.18394    1.000
    N7       N        0.62390    0.71230    0.11440    1.000
    H21      H        0.61940    0.75780    0.12310    1.000
    H22      H        0.59560    0.69370    0.06320    1.000
    O11      O        0.65492    0.89447    0.45399    1.000
    O12      O        0.53291    0.88226    0.34054    1.000
    C31      C        0.57665    0.90677    0.41375    1.000
    C32      C        0.53646    0.95406    0.45868    1.000
    C33      C        0.45253    0.94400    0.45042    1.000
    C34      C        0.41605    0.98951    0.49123    1.000
    N8       N        0.40150    0.89220    0.40560    1.000
    H23      H        0.34930    0.88920    0.40390    1.000
    H24      H        0.41990    0.86110    0.37780    1.000
    N9       N        0.33770    0.96810    0.48850    1.000
    H25      H        0.31510    0.92840    0.46230    1.000
    H26      H        0.31030    0.99410    0.51300    1.000
    N10      N        0.63190    0.58230    0.07290    1.000
    H27      H        0.63380    0.53920    0.05390    1.000
    H28      H        0.59330    0.61250    0.04100    1.000
    Zn3      Zn       0.75172    0.37168    0.08061    1.000
    Li3      Li       0.91790    0.38330    0.25300    1.000
    N11      N        0.65835    0.36492    0.96021    1.000
    C35      C        0.61257    0.30652    0.92803    1.000
    H29      H        0.62340    0.26540    0.96330    1.000
    C36      C        0.55063    0.30342    0.84618    1.000
    H30      H        0.51980    0.26090    0.82560    1.000
    C37      C        0.53360    0.36324    0.79395    1.000
    C38      C        0.58141    0.42355    0.82723    1.000
    H31      H        0.57200    0.46540    0.79340    1.000
    C39      C        0.64267    0.42239    0.90970    1.000
    H32      H        0.67510    0.46400    0.93160    1.000
    O13      O        0.74283    0.28280    0.13086    1.000
    O14      O        0.85652    0.29964    0.25218    1.000
    O15      O        0.65573    0.96140    0.27384    1.000
    O16      O        0.78154    0.96051    0.38251    1.000
    C40      C        0.79459    0.26363    0.20578    1.000
    C41      C        0.77708    0.19315    0.23593    1.000
    C42      C        0.82458    0.16997    0.31900    1.000
    C43      C        0.80980    0.10297    0.34620    1.000
    C44      C        0.74594    0.05990    0.28989    1.000
    C45      C        0.69931    0.08420    0.20699    1.000
    H33      H        0.65600    0.05510    0.16830    1.000
    C46      C        0.71456    0.14941    0.17995    1.000
    H34      H        0.68230    0.16480    0.12280    1.000
    C47      C        0.72534    0.98939    0.31606    1.000
    N12      N        0.87610    0.21230    0.38560    1.000
    H35      H        0.88060    0.25780    0.37690    1.000
    H36      H        0.90440    0.19370    0.43680    1.000
    O17      O        0.84508    0.39447    0.04601    1.000
    O18      O        0.96709    0.38226    0.15946    1.000
    C48      C        0.92335    0.40677    0.08625    1.000
    C49      C        0.96354    0.45406    0.04132    1.000
    C50      C        0.04747    0.44400    0.04958    1.000
    C51      C        0.08395    0.48951    0.00877    1.000
    N13      N        0.09850    0.39220    0.09440    1.000
    H37      H        0.15070    0.38920    0.09610    1.000
    H38      H        0.08010    0.36110    0.12220    1.000
    N14      N        0.16230    0.46810    0.01150    1.000
    H39      H        0.18490    0.42840    0.03770    1.000
    H40      H        0.18970    0.49410    0.98700    1.000
    N15      N        0.86810    0.08230    0.42710    1.000
    H41      H        0.86620    0.03920    0.44610    1.000
    H42      H        0.90670    0.11250    0.45900    1.000
    Zn4      Zn       0.25172    0.87168    0.08061    1.000
    Li4      Li       0.41790    0.88330    0.25300    1.000
    N16      N        0.15835    0.86492    0.96021    1.000
    C52      C        0.11257    0.80652    0.92803    1.000
    H43      H        0.12340    0.76540    0.96330    1.000
    C53      C        0.05063    0.80342    0.84618    1.000
    H44      H        0.01980    0.76090    0.82560    1.000
    C54      C        0.03360    0.86324    0.79395    1.000
    C55      C        0.08141    0.92355    0.82723    1.000
    H45      H        0.07200    0.96540    0.79340    1.000
    C56      C        0.14267    0.92239    0.90970    1.000
    H46      H        0.17510    0.96400    0.93160    1.000
    O19      O        0.24283    0.78280    0.13086    1.000
    O20      O        0.35652    0.79964    0.25218    1.000
    O21      O        0.15573    0.46140    0.27384    1.000
    O22      O        0.28154    0.46051    0.38251    1.000
    C57      C        0.29459    0.76363    0.20578    1.000
    C58      C        0.27708    0.69315    0.23593    1.000
    C59      C        0.32458    0.66997    0.31900    1.000
    C60      C        0.30980    0.60297    0.34620    1.000
    C61      C        0.24594    0.55990    0.28989    1.000
    C62      C        0.19931    0.58420    0.20699    1.000
    H47      H        0.15600    0.55510    0.16830    1.000
    C63      C        0.21456    0.64941    0.17995    1.000
    H48      H        0.18230    0.66480    0.12280    1.000
    C64      C        0.22534    0.48939    0.31606    1.000
    N17      N        0.37610    0.71230    0.38560    1.000
    H49      H        0.38060    0.75780    0.37690    1.000
    H50      H        0.40440    0.69370    0.43680    1.000
    O23      O        0.34508    0.89447    0.04601    1.000
    O24      O        0.46709    0.88226    0.15946    1.000
    C65      C        0.42335    0.90677    0.08625    1.000
    C66      C        0.46354    0.95406    0.04132    1.000
    C67      C        0.54747    0.94400    0.04958    1.000
    C68      C        0.58395    0.98951    0.00877    1.000
    N18      N        0.59850    0.89220    0.09440    1.000
    H51      H        0.65070    0.88920    0.09610    1.000
    H52      H        0.58010    0.86110    0.12220    1.000
    N19      N        0.66230    0.96810    0.01150    1.000
    H53      H        0.68490    0.92840    0.03770    1.000
    H54      H        0.68970    0.99410    0.98700    1.000
    N20      N        0.36810    0.58230    0.42710    1.000
    H55      H        0.36620    0.53920    0.44610    1.000
    H56      H        0.40670    0.61250    0.45900    1.000
    Zn5      Zn       0.75172    0.62832    0.58061    1.000
    Li5      Li       0.91790    0.61670    0.75300    1.000
    N21      N        0.65835    0.63508    0.46021    1.000
    C69      C        0.61257    0.69348    0.42803    1.000
    H57      H        0.62340    0.73460    0.46330    1.000
    C70      C        0.55063    0.69658    0.34618    1.000
    H58      H        0.51980    0.73910    0.32560    1.000
    C71      C        0.53360    0.63676    0.29395    1.000
    C72      C        0.58141    0.57645    0.32723    1.000
    H59      H        0.57200    0.53460    0.29340    1.000
    C73      C        0.64267    0.57761    0.40970    1.000
    H60      H        0.67510    0.53600    0.43160    1.000
    O25      O        0.74283    0.71720    0.63086    1.000
    O26      O        0.85652    0.70036    0.75218    1.000
    O27      O        0.65573    0.03860    0.77384    1.000
    O28      O        0.78154    0.03949    0.88251    1.000
    C74      C        0.79459    0.73637    0.70578    1.000
    C75      C        0.77708    0.80685    0.73593    1.000
    C76      C        0.82458    0.83003    0.81900    1.000
    C77      C        0.80980    0.89703    0.84620    1.000
    C78      C        0.74594    0.94010    0.78989    1.000
    C79      C        0.69931    0.91580    0.70699    1.000
    H61      H        0.65600    0.94490    0.66830    1.000
    C80      C        0.71456    0.85059    0.67995    1.000
    H62      H        0.68230    0.83520    0.62280    1.000
    C81      C        0.72534    0.01061    0.81606    1.000
    N22      N        0.87610    0.78770    0.88560    1.000
    H63      H        0.88060    0.74220    0.87690    1.000
    H64      H        0.90440    0.80630    0.93680    1.000
    O29      O        0.84508    0.60553    0.54601    1.000
    O30      O        0.96709    0.61774    0.65946    1.000
    C82      C        0.92335    0.59323    0.58625    1.000
    C83      C        0.96354    0.54594    0.54132    1.000
    C84      C        0.04747    0.55600    0.54958    1.000
    C85      C        0.08395    0.51049    0.50877    1.000
    N23      N        0.09850    0.60780    0.59440    1.000
    H65      H        0.15070    0.61080    0.59610    1.000
    H66      H        0.08010    0.63890    0.62220    1.000
    N24      N        0.16230    0.53190    0.51150    1.000
    H67      H        0.18490    0.57160    0.53770    1.000
    H68      H        0.18970    0.50590    0.48700    1.000
    N25      N        0.86810    0.91770    0.92710    1.000
    H69      H        0.86620    0.96080    0.94610    1.000
    H70      H        0.90670    0.88750    0.95900    1.000
    Zn6      Zn       0.25172    0.12832    0.58061    1.000
    Li6      Li       0.41790    0.11670    0.75300    1.000
    N26      N        0.15835    0.13508    0.46021    1.000
    C86      C        0.11257    0.19348    0.42803    1.000
    H71      H        0.12340    0.23460    0.46330    1.000
    C87      C        0.05063    0.19658    0.34618    1.000
    H72      H        0.01980    0.23910    0.32560    1.000
    C88      C        0.03360    0.13676    0.29395    1.000
    C89      C        0.08141    0.07645    0.32723    1.000
    H73      H        0.07200    0.03460    0.29340    1.000
    C90      C        0.14267    0.07761    0.40970    1.000
    H74      H        0.17510    0.03600    0.43160    1.000
    O31      O        0.24283    0.21720    0.63086    1.000
    O32      O        0.35652    0.20036    0.75218    1.000
    O33      O        0.15573    0.53860    0.77384    1.000
    O34      O        0.28154    0.53949    0.88251    1.000
    C91      C        0.29459    0.23637    0.70578    1.000
    C92      C        0.27708    0.30685    0.73593    1.000
    C93      C        0.32458    0.33003    0.81900    1.000
    C94      C        0.30980    0.39703    0.84620    1.000
    C95      C        0.24594    0.44010    0.78989    1.000
    C96      C        0.19931    0.41580    0.70699    1.000
    H75      H        0.15600    0.44490    0.66830    1.000
    C97      C        0.21456    0.35059    0.67995    1.000
    H76      H        0.18230    0.33520    0.62280    1.000
    C98      C        0.22534    0.51061    0.81606    1.000
    N27      N        0.37610    0.28770    0.88560    1.000
    H77      H        0.38060    0.24220    0.87690    1.000
    H78      H        0.40440    0.30630    0.93680    1.000
    O35      O        0.34508    0.10553    0.54601    1.000
    O36      O        0.46709    0.11774    0.65946    1.000
    C99      C        0.42335    0.09323    0.58625    1.000
    C100     C        0.46354    0.04594    0.54132    1.000
    C101     C        0.54747    0.05600    0.54958    1.000
    C102     C        0.58395    0.01049    0.50877    1.000
    N28      N        0.59850    0.10780    0.59440    1.000
    H79      H        0.65070    0.11080    0.59610    1.000
    H80      H        0.58010    0.13890    0.62220    1.000
    N29      N        0.66230    0.03190    0.51150    1.000
    H81      H        0.68490    0.07160    0.53770    1.000
    H82      H        0.68970    0.00590    0.48700    1.000
    N30      N        0.36810    0.41770    0.92710    1.000
    H83      H        0.36620    0.46080    0.94610    1.000
    H84      H        0.40670    0.38750    0.95900    1.000
    Zn7      Zn       0.24828    0.62832    0.91939    1.000
    Li7      Li       0.08210    0.61670    0.74700    1.000
    N31      N        0.34165    0.63508    0.03979    1.000
    C103     C        0.38743    0.69348    0.07197    1.000
    H85      H        0.37660    0.73460    0.03670    1.000
    C104     C        0.44937    0.69658    0.15382    1.000
    H86      H        0.48020    0.73910    0.17440    1.000
    C105     C        0.46640    0.63676    0.20605    1.000
    C106     C        0.41859    0.57645    0.17277    1.000
    H87      H        0.42800    0.53460    0.20660    1.000
    C107     C        0.35733    0.57761    0.09030    1.000
    H88      H        0.32490    0.53600    0.06840    1.000
    O37      O        0.25717    0.71720    0.86914    1.000
    O38      O        0.14348    0.70036    0.74782    1.000
    O39      O        0.34427    0.03860    0.72616    1.000
    O40      O        0.21846    0.03949    0.61749    1.000
    C108     C        0.20541    0.73637    0.79422    1.000
    C109     C        0.22292    0.80685    0.76407    1.000
    C110     C        0.17542    0.83003    0.68100    1.000
    C111     C        0.19020    0.89703    0.65380    1.000
    C112     C        0.25406    0.94010    0.71011    1.000
    C113     C        0.30069    0.91580    0.79301    1.000
    H89      H        0.34400    0.94490    0.83170    1.000
    C114     C        0.28544    0.85059    0.82005    1.000
    H90      H        0.31770    0.83520    0.87720    1.000
    C115     C        0.27466    0.01061    0.68394    1.000
    N32      N        0.12390    0.78770    0.61440    1.000
    H91      H        0.11940    0.74220    0.62310    1.000
    H92      H        0.09560    0.80630    0.56320    1.000
    O41      O        0.15492    0.60553    0.95399    1.000
    O42      O        0.03291    0.61774    0.84054    1.000
    C116     C        0.07665    0.59323    0.91375    1.000
    C117     C        0.03646    0.54594    0.95868    1.000
    C118     C        0.95253    0.55600    0.95042    1.000
    C119     C        0.91605    0.51049    0.99123    1.000
    N33      N        0.90150    0.60780    0.90560    1.000
    H93      H        0.84930    0.61080    0.90390    1.000
    H94      H        0.91990    0.63890    0.87780    1.000
    N34      N        0.83770    0.53190    0.98850    1.000
    H95      H        0.81510    0.57160    0.96230    1.000
    H96      H        0.81030    0.50590    0.01300    1.000
    N35      N        0.13190    0.91770    0.57290    1.000
    H97      H        0.13380    0.96080    0.55390    1.000
    H98      H        0.09330    0.88750    0.54100    1.000
    Zn8      Zn       0.74828    0.12832    0.91939    1.000
    Li8      Li       0.58210    0.11670    0.74700    1.000
    N36      N        0.84165    0.13508    0.03979    1.000
    C120     C        0.88743    0.19348    0.07197    1.000
    H99      H        0.87660    0.23460    0.03670    1.000
    C121     C        0.94937    0.19658    0.15382    1.000
    H100     H        0.98020    0.23910    0.17440    1.000
    C122     C        0.96640    0.13676    0.20605    1.000
    C123     C        0.91859    0.07645    0.17277    1.000
    H101     H        0.92800    0.03460    0.20660    1.000
    C124     C        0.85733    0.07761    0.09030    1.000
    H102     H        0.82490    0.03600    0.06840    1.000
    O43      O        0.75717    0.21720    0.86914    1.000
    O44      O        0.64348    0.20036    0.74782    1.000
    O45      O        0.84427    0.53860    0.72616    1.000
    O46      O        0.71846    0.53949    0.61749    1.000
    C125     C        0.70541    0.23637    0.79422    1.000
    C126     C        0.72292    0.30685    0.76407    1.000
    C127     C        0.67542    0.33003    0.68100    1.000
    C128     C        0.69020    0.39703    0.65380    1.000
    C129     C        0.75406    0.44010    0.71011    1.000
    C130     C        0.80069    0.41580    0.79301    1.000
    H103     H        0.84400    0.44490    0.83170    1.000
    C131     C        0.78544    0.35059    0.82005    1.000
    H104     H        0.81770    0.33520    0.87720    1.000
    C132     C        0.77466    0.51061    0.68394    1.000
    N37      N        0.62390    0.28770    0.61440    1.000
    H105     H        0.61940    0.24220    0.62310    1.000
    H106     H        0.59560    0.30630    0.56320    1.000
    O47      O        0.65492    0.10553    0.95399    1.000
    O48      O        0.53291    0.11774    0.84054    1.000
    C133     C        0.57665    0.09323    0.91375    1.000
    C134     C        0.53646    0.04594    0.95868    1.000
    C135     C        0.45253    0.05600    0.95042    1.000
    C136     C        0.41605    0.01049    0.99123    1.000
    N38      N        0.40150    0.10780    0.90560    1.000
    H107     H        0.34930    0.11080    0.90390    1.000
    H108     H        0.41990    0.13890    0.87780    1.000
    N39      N        0.33770    0.03190    0.98850    1.000
    H109     H        0.31510    0.07160    0.96230    1.000
    H110     H        0.31030    0.00590    0.01300    1.000
    N40      N        0.63190    0.41770    0.57290    1.000
    H111     H        0.63380    0.46080    0.55390    1.000
    H112     H        0.59330    0.38750    0.54100    1.000
