# CIF file generated by openbabel 3.1.0, see https://openbabel.org
data_I
_chemical_name_common 'image0'
_cell_length_a 10.108
_cell_length_b 13.6695
_cell_length_c 28.8626
_cell_angle_alpha 90
_cell_angle_beta 99.502
_cell_angle_gamma 90
_space_group_name_H-M_alt 'P 1'
_space_group_name_Hall 'P 1'
loop_
    _symmetry_equiv_pos_as_xyz
    x,y,z
loop_
    _atom_site_label
    _atom_site_type_symbol
    _atom_site_fract_x
    _atom_site_fract_y
    _atom_site_fract_z
    _atom_site_occupancy
    C1       C        0.47850    0.18600    0.88874    1.000
    C2       C        0.42760    0.24680    0.92549    1.000
    C3       C        0.49360    0.25060    0.97107    1.000
    H1       H        0.56710    0.21010    0.98030    1.000
    C4       C        0.31420    0.30380    0.91348    1.000
    H2       H        0.26700    0.30070    0.88300    1.000
    C5       C        0.26940    0.36500    0.94526    1.000
    H3       H        0.19130    0.40110    0.93640    1.000
    C6       C        0.45240    0.31370    0.00357    1.000
    H4       H        0.49980    0.31600    0.03400    1.000
    C7       C        0.34100    0.37330    0.99101    1.000
    C8       C        0.23220    0.52930    0.00685    1.000
    C9       C        0.13850    0.56660    0.03250    1.000
    H5       H        0.12020    0.53340    0.05890    1.000
    C10      C        0.25450    0.57880    0.96732    1.000
    H6       H        0.31670    0.55470    0.94980    1.000
    C11      C        0.18520    0.66410    0.95349    1.000
    H7       H        0.20060    0.69590    0.92640    1.000
    C12      C        0.07240    0.65370    0.01870    1.000
    H8       H        0.01220    0.67960    0.03660    1.000
    C13      C        0.09490    0.70230    0.97860    1.000
    H9       H        0.04930    0.75990    0.96910    1.000
    C14      C        0.35410    0.43540    0.07196    1.000
    C15      C        0.33910    0.35050    0.09657    1.000
    H10      H        0.29740    0.29620    0.08110    1.000
    C16      C        0.41990    0.51450    0.09485    1.000
    H11      H        0.43320    0.57060    0.07800    1.000
    C17      C        0.38640    0.34680    0.14429    1.000
    H12      H        0.37600    0.28960    0.16070    1.000
    C18      C        0.46640    0.51060    0.14292    1.000
    H13      H        0.50940    0.56460    0.15830    1.000
    C19      C        0.44880    0.42630    0.16802    1.000
    C20      C        0.49060    0.42370    0.22064    1.000
    N1       N        0.30290    0.44200    0.02292    1.000
    O1       O        0.43060    0.20370    0.84673    1.000
    O2       O        0.56390    0.12120    0.90083    1.000
    O3       O        0.45500    0.35230    0.24298    1.000
    O4       O        0.55750    0.49240    0.24112    1.000
    C21      C        0.47850    0.31400    0.38874    1.000
    C22      C        0.42760    0.25320    0.42549    1.000
    C23      C        0.49360    0.24940    0.47107    1.000
    H14      H        0.56710    0.28990    0.48030    1.000
    C24      C        0.31420    0.19620    0.41348    1.000
    H15      H        0.26700    0.19930    0.38300    1.000
    C25      C        0.26940    0.13500    0.44526    1.000
    H16      H        0.19130    0.09890    0.43640    1.000
    C26      C        0.45240    0.18630    0.50357    1.000
    H17      H        0.49980    0.18400    0.53400    1.000
    C27      C        0.34100    0.12670    0.49101    1.000
    C28      C        0.23220    0.97070    0.50685    1.000
    C29      C        0.13850    0.93340    0.53250    1.000
    H18      H        0.12020    0.96660    0.55890    1.000
    C30      C        0.25450    0.92120    0.46732    1.000
    H19      H        0.31670    0.94530    0.44980    1.000
    C31      C        0.18520    0.83590    0.45349    1.000
    H20      H        0.20060    0.80410    0.42640    1.000
    C32      C        0.07240    0.84630    0.51870    1.000
    H21      H        0.01220    0.82040    0.53660    1.000
    C33      C        0.09490    0.79770    0.47860    1.000
    H22      H        0.04930    0.74010    0.46910    1.000
    C34      C        0.35410    0.06460    0.57196    1.000
    C35      C        0.33910    0.14950    0.59657    1.000
    H23      H        0.29740    0.20380    0.58110    1.000
    C36      C        0.41990    0.98550    0.59485    1.000
    H24      H        0.43320    0.92940    0.57800    1.000
    C37      C        0.38640    0.15320    0.64429    1.000
    H25      H        0.37600    0.21040    0.66070    1.000
    C38      C        0.46640    0.98940    0.64292    1.000
    H26      H        0.50940    0.93540    0.65830    1.000
    C39      C        0.44880    0.07370    0.66802    1.000
    C40      C        0.49060    0.07630    0.72064    1.000
    N2       N        0.30290    0.05800    0.52292    1.000
    O5       O        0.43060    0.29630    0.34673    1.000
    O6       O        0.56390    0.37880    0.40083    1.000
    O7       O        0.45500    0.14770    0.74298    1.000
    O8       O        0.55750    0.00760    0.74112    1.000
    C41      C        0.52150    0.68600    0.61126    1.000
    C42      C        0.57240    0.74680    0.57451    1.000
    C43      C        0.50640    0.75060    0.52893    1.000
    H27      H        0.43290    0.71010    0.51970    1.000
    C44      C        0.68580    0.80380    0.58652    1.000
    H28      H        0.73300    0.80070    0.61700    1.000
    C45      C        0.73060    0.86500    0.55474    1.000
    H29      H        0.80870    0.90110    0.56360    1.000
    C46      C        0.54760    0.81370    0.49643    1.000
    H30      H        0.50020    0.81600    0.46600    1.000
    C47      C        0.65900    0.87330    0.50899    1.000
    C48      C        0.76780    0.02930    0.49315    1.000
    C49      C        0.86150    0.06660    0.46750    1.000
    H31      H        0.87980    0.03340    0.44110    1.000
    C50      C        0.74550    0.07880    0.53268    1.000
    H32      H        0.68330    0.05470    0.55020    1.000
    C51      C        0.81480    0.16410    0.54651    1.000
    H33      H        0.79940    0.19590    0.57360    1.000
    C52      C        0.92760    0.15370    0.48130    1.000
    H34      H        0.98780    0.17960    0.46340    1.000
    C53      C        0.90510    0.20230    0.52140    1.000
    H35      H        0.95070    0.25990    0.53090    1.000
    C54      C        0.64590    0.93540    0.42804    1.000
    C55      C        0.66090    0.85050    0.40343    1.000
    H36      H        0.70260    0.79620    0.41890    1.000
    C56      C        0.58010    0.01450    0.40515    1.000
    H37      H        0.56680    0.07060    0.42200    1.000
    C57      C        0.61360    0.84680    0.35571    1.000
    H38      H        0.62400    0.78960    0.33930    1.000
    C58      C        0.53360    0.01060    0.35708    1.000
    H39      H        0.49060    0.06460    0.34170    1.000
    C59      C        0.55120    0.92630    0.33198    1.000
    C60      C        0.50940    0.92370    0.27936    1.000
    N3       N        0.69710    0.94200    0.47708    1.000
    O9       O        0.56940    0.70370    0.65327    1.000
    O10      O        0.43610    0.62120    0.59917    1.000
    O11      O        0.54500    0.85230    0.25702    1.000
    O12      O        0.44250    0.99240    0.25888    1.000
    C61      C        0.52150    0.81400    0.11126    1.000
    C62      C        0.57240    0.75320    0.07451    1.000
    C63      C        0.50640    0.74940    0.02893    1.000
    H40      H        0.43290    0.78990    0.01970    1.000
    C64      C        0.68580    0.69620    0.08652    1.000
    H41      H        0.73300    0.69930    0.11700    1.000
    C65      C        0.73060    0.63500    0.05474    1.000
    H42      H        0.80870    0.59890    0.06360    1.000
    C66      C        0.54760    0.68630    0.99643    1.000
    H43      H        0.50020    0.68400    0.96600    1.000
    C67      C        0.65900    0.62670    0.00899    1.000
    C68      C        0.76780    0.47070    0.99315    1.000
    C69      C        0.86150    0.43340    0.96750    1.000
    H44      H        0.87980    0.46660    0.94110    1.000
    C70      C        0.74550    0.42120    0.03268    1.000
    H45      H        0.68330    0.44530    0.05020    1.000
    C71      C        0.81480    0.33590    0.04651    1.000
    H46      H        0.79940    0.30410    0.07360    1.000
    C72      C        0.92760    0.34630    0.98130    1.000
    H47      H        0.98780    0.32040    0.96340    1.000
    C73      C        0.90510    0.29770    0.02140    1.000
    H48      H        0.95070    0.24010    0.03090    1.000
    C74      C        0.64590    0.56460    0.92804    1.000
    C75      C        0.66090    0.64950    0.90343    1.000
    H49      H        0.70260    0.70380    0.91890    1.000
    C76      C        0.58010    0.48550    0.90515    1.000
    H50      H        0.56680    0.42940    0.92200    1.000
    C77      C        0.61360    0.65320    0.85571    1.000
    H51      H        0.62400    0.71040    0.83930    1.000
    C78      C        0.53360    0.48940    0.85708    1.000
    H52      H        0.49060    0.43540    0.84170    1.000
    C79      C        0.55120    0.57370    0.83198    1.000
    C80      C        0.50940    0.57630    0.77936    1.000
    N4       N        0.69710    0.55800    0.97708    1.000
    O13      O        0.56940    0.79630    0.15327    1.000
    O14      O        0.43610    0.87880    0.09917    1.000
    O15      O        0.54500    0.64770    0.75702    1.000
    O16      O        0.44250    0.50760    0.75888    1.000
    C81      C        0.15340    0.86220    0.83236    1.000
    C82      C        0.28230    0.82770    0.84453    1.000
    H53      H        0.29660    0.76370    0.85510    1.000
    C83      C        0.13980    0.95700    0.81636    1.000
    H54      H        0.05460    0.98330    0.80730    1.000
    C84      C        0.25070    0.01320    0.81364    1.000
    H55      H        0.23820    0.07750    0.80340    1.000
    C85      C        0.39030    0.88720    0.84124    1.000
    H56      H        0.47640    0.86260    0.85050    1.000
    C86      C        0.86000    0.17000    0.83456    1.000
    H57      H        0.88050    0.10920    0.84840    1.000
    C87      C        0.70740    0.27900    0.79825    1.000
    H58      H        0.61870    0.29480    0.78640    1.000
    C88      C        0.96240    0.23540    0.83292    1.000
    H59      H        0.04990    0.21840    0.84580    1.000
    C89      C        0.80380    0.34820    0.79518    1.000
    H60      H        0.78040    0.40900    0.78180    1.000
    C90      C        0.93650    0.32620    0.81232    1.000
    C91      C        0.04950    0.39390    0.80628    1.000
    H61      H        0.08170    0.37700    0.77740    1.000
    H62      H        0.12280    0.38380    0.83210    1.000
    C92      C        0.98280    0.53400    0.84947    1.000
    H63      H        0.98520    0.49560    0.87620    1.000
    C93      C        0.12000    0.55580    0.79049    1.000
    H64      H        0.20020    0.53080    0.78370    1.000
    C94      C        0.94880    0.63920    0.84731    1.000
    H65      H        0.86830    0.66540    0.85320    1.000
    C95      C        0.08240    0.66280    0.78842    1.000
    H66      H        0.07490    0.70170    0.76170    1.000
    C96      C        0.03240    0.80070    0.83559    1.000
    H67      H        0.96210    0.81690    0.80960    1.000
    H68      H        0.99990    0.81640    0.86450    1.000
    N5       N        0.73290    0.19020    0.81717    1.000
    N6       N        0.37560    0.97940    0.82515    1.000
    N7       N        0.01220    0.49700    0.80464    1.000
    N8       N        0.05970    0.69620    0.83461    1.000
    Cd1      Cd       0.55659    0.08175    0.81774    1.000
    C97      C        0.15340    0.63780    0.33236    1.000
    C98      C        0.28230    0.67230    0.34453    1.000
    H69      H        0.29660    0.73630    0.35510    1.000
    C99      C        0.13980    0.54300    0.31636    1.000
    H70      H        0.05460    0.51670    0.30730    1.000
    C100     C        0.25070    0.48680    0.31364    1.000
    H71      H        0.23820    0.42250    0.30340    1.000
    C101     C        0.39030    0.61280    0.34124    1.000
    H72      H        0.47640    0.63740    0.35050    1.000
    C102     C        0.86000    0.33000    0.33456    1.000
    H73      H        0.88050    0.39080    0.34840    1.000
    C103     C        0.70740    0.22100    0.29825    1.000
    H74      H        0.61870    0.20520    0.28640    1.000
    C104     C        0.96240    0.26460    0.33292    1.000
    H75      H        0.04990    0.28160    0.34580    1.000
    C105     C        0.80380    0.15180    0.29518    1.000
    H76      H        0.78040    0.09100    0.28180    1.000
    C106     C        0.93650    0.17380    0.31232    1.000
    C107     C        0.04950    0.10610    0.30628    1.000
    H77      H        0.08170    0.12300    0.27740    1.000
    H78      H        0.12280    0.11620    0.33210    1.000
    C108     C        0.98280    0.96600    0.34947    1.000
    H79      H        0.98520    0.00440    0.37620    1.000
    C109     C        0.12000    0.94420    0.29049    1.000
    H80      H        0.20020    0.96920    0.28370    1.000
    C110     C        0.94880    0.86080    0.34731    1.000
    H81      H        0.86830    0.83460    0.35320    1.000
    C111     C        0.08240    0.83720    0.28842    1.000
    H82      H        0.07490    0.79830    0.26170    1.000
    C112     C        0.03240    0.69930    0.33559    1.000
    H83      H        0.96210    0.68310    0.30960    1.000
    H84      H        0.99990    0.68360    0.36450    1.000
    N9       N        0.73290    0.30980    0.31717    1.000
    N10      N        0.37560    0.52060    0.32515    1.000
    N11      N        0.01220    0.00300    0.30464    1.000
    N12      N        0.05970    0.80380    0.33461    1.000
    Cd2      Cd       0.55659    0.41825    0.31774    1.000
    C113     C        0.84660    0.36220    0.66764    1.000
    C114     C        0.71770    0.32770    0.65547    1.000
    H85      H        0.70340    0.26370    0.64490    1.000
    C115     C        0.86020    0.45700    0.68364    1.000
    H86      H        0.94540    0.48330    0.69270    1.000
    C116     C        0.74930    0.51320    0.68636    1.000
    H87      H        0.76180    0.57750    0.69660    1.000
    C117     C        0.60970    0.38720    0.65876    1.000
    H88      H        0.52360    0.36260    0.64950    1.000
    C118     C        0.14000    0.67000    0.66544    1.000
    H89      H        0.11950    0.60920    0.65160    1.000
    C119     C        0.29260    0.77900    0.70175    1.000
    H90      H        0.38130    0.79480    0.71360    1.000
    C120     C        0.03760    0.73540    0.66708    1.000
    H91      H        0.95010    0.71840    0.65420    1.000
    C121     C        0.19620    0.84820    0.70482    1.000
    H92      H        0.21960    0.90900    0.71820    1.000
    C122     C        0.06350    0.82620    0.68768    1.000
    C123     C        0.95050    0.89390    0.69372    1.000
    H93      H        0.91830    0.87700    0.72260    1.000
    H94      H        0.87720    0.88380    0.66790    1.000
    C124     C        0.01720    0.03400    0.65053    1.000
    H95      H        0.01480    0.99560    0.62380    1.000
    C125     C        0.88000    0.05580    0.70951    1.000
    H96      H        0.79980    0.03080    0.71630    1.000
    C126     C        0.05120    0.13920    0.65269    1.000
    H97      H        0.13170    0.16540    0.64680    1.000
    C127     C        0.91760    0.16280    0.71158    1.000
    H98      H        0.92510    0.20170    0.73830    1.000
    C128     C        0.96760    0.30070    0.66441    1.000
    H99      H        0.03790    0.31690    0.69040    1.000
    H100     H        0.00010    0.31640    0.63550    1.000
    N13      N        0.26710    0.69020    0.68283    1.000
    N14      N        0.62440    0.47940    0.67485    1.000
    N15      N        0.98780    0.99700    0.69536    1.000
    N16      N        0.94030    0.19620    0.66539    1.000
    Cd3      Cd       0.44341    0.58175    0.68226    1.000
    C129     C        0.84660    0.13780    0.16764    1.000
    C130     C        0.71770    0.17230    0.15547    1.000
    H101     H        0.70340    0.23630    0.14490    1.000
    C131     C        0.86020    0.04300    0.18364    1.000
    H102     H        0.94540    0.01670    0.19270    1.000
    C132     C        0.74930    0.98680    0.18636    1.000
    H103     H        0.76180    0.92250    0.19660    1.000
    C133     C        0.60970    0.11280    0.15876    1.000
    H104     H        0.52360    0.13740    0.14950    1.000
    C134     C        0.14000    0.83000    0.16544    1.000
    H105     H        0.11950    0.89080    0.15160    1.000
    C135     C        0.29260    0.72100    0.20175    1.000
    H106     H        0.38130    0.70520    0.21360    1.000
    C136     C        0.03760    0.76460    0.16708    1.000
    H107     H        0.95010    0.78160    0.15420    1.000
    C137     C        0.19620    0.65180    0.20482    1.000
    H108     H        0.21960    0.59100    0.21820    1.000
    C138     C        0.06350    0.67380    0.18768    1.000
    C139     C        0.95050    0.60610    0.19372    1.000
    H109     H        0.91830    0.62300    0.22260    1.000
    H110     H        0.87720    0.61620    0.16790    1.000
    C140     C        0.01720    0.46600    0.15053    1.000
    H111     H        0.01480    0.50440    0.12380    1.000
    C141     C        0.88000    0.44420    0.20951    1.000
    H112     H        0.79980    0.46920    0.21630    1.000
    C142     C        0.05120    0.36080    0.15269    1.000
    H113     H        0.13170    0.33460    0.14680    1.000
    C143     C        0.91760    0.33720    0.21158    1.000
    H114     H        0.92510    0.29830    0.23830    1.000
    C144     C        0.96760    0.19930    0.16441    1.000
    H115     H        0.03790    0.18310    0.19040    1.000
    H116     H        0.00010    0.18360    0.13550    1.000
    N17      N        0.26710    0.80980    0.18283    1.000
    N18      N        0.62440    0.02060    0.17485    1.000
    N19      N        0.98780    0.50300    0.19536    1.000
    N20      N        0.94030    0.30380    0.16539    1.000
    Cd4      Cd       0.44341    0.91825    0.18226    1.000
