# CIF file generated by openbabel 3.1.0, see https://openbabel.org
data_I
_chemical_name_common 'NOCLOH03_clean'
_cell_length_a 9.8731
_cell_length_b 10.6396
_cell_length_c 10.6396
_cell_angle_alpha 120
_cell_angle_beta 90
_cell_angle_gamma 90
_space_group_name_H-M_alt 'P 1'
_space_group_name_Hall 'P 1'
loop_
    _symmetry_equiv_pos_as_xyz
    x,y,z
loop_
    _atom_site_label
    _atom_site_type_symbol
    _atom_site_fract_x
    _atom_site_fract_y
    _atom_site_fract_z
    _atom_site_occupancy
    Sr1      Sr       0.86320    0.76565    0.45368    1.000
    Sr2      Sr       0.52987    0.68803    0.23435    1.000
    Sr3      Sr       0.19653    0.54632    0.31197    1.000
    H1       H        0.76860    0.67390    0.94350    1.000
    H2       H        0.83560    0.65390    0.72610    1.000
    H3       H        0.20040    0.52070    0.77030    1.000
    H4       H        0.13310    0.53570    0.98410    1.000
    H5       H        0.43527    0.26960    0.32610    1.000
    H6       H        0.50227    0.07220    0.34610    1.000
    H7       H        0.86707    0.24960    0.47930    1.000
    H8       H        0.79977    0.44840    0.46430    1.000
    H9       H        0.10193    0.05650    0.73040    1.000
    H10      H        0.16893    0.27390    0.92780    1.000
    H11      H        0.53373    0.22970    0.75040    1.000
    H12      H        0.46643    0.01590    0.55160    1.000
    C1       C        0.90200    0.61930    0.12840    1.000
    C2       C        0.94370    0.60480    0.98740    1.000
    C3       C        0.85560    0.64170    0.90870    1.000
    C4       C        0.89640    0.63080    0.77820    1.000
    C5       C        0.02490    0.58670    0.72550    1.000
    C6       C        0.07280    0.57730    0.58640    1.000
    C7       C        0.11290    0.55110    0.80440    1.000
    C8       C        0.07220    0.56020    0.93310    1.000
    C9       C        0.56867    0.50910    0.38070    1.000
    C10      C        0.61037    0.38260    0.39520    1.000
    C11      C        0.52227    0.26700    0.35830    1.000
    C12      C        0.56307    0.14740    0.36920    1.000
    C13      C        0.69157    0.13880    0.41330    1.000
    C14      C        0.73947    0.00910    0.42270    1.000
    C15      C        0.77957    0.25330    0.44890    1.000
    C16      C        0.73887    0.37290    0.43980    1.000
    C17      C        0.23533    0.87160    0.49090    1.000
    C18      C        0.27703    0.01260    0.61740    1.000
    C19      C        0.18893    0.09130    0.73300    1.000
    C20      C        0.22973    0.22180    0.85260    1.000
    C21      C        0.35823    0.27450    0.86120    1.000
    C22      C        0.40613    0.41360    0.99090    1.000
    C23      C        0.44623    0.19560    0.74670    1.000
    C24      C        0.40553    0.06690    0.62710    1.000
    O1       O        0.78490    0.65830    0.17290    1.000
    O2       O        0.98850    0.59470    0.20100    1.000
    O3       O        0.98940    0.59520    0.50810    1.000
    O4       O        0.19520    0.55010    0.55350    1.000
    O5       O        0.45157    0.51460    0.34170    1.000
    O6       O        0.65517    0.60630    0.40530    1.000
    O7       O        0.65607    0.91290    0.40480    1.000
    O8       O        0.86187    0.00340    0.44990    1.000
    O9       O        0.11823    0.82710    0.48540    1.000
    O10      O        0.32183    0.79900    0.39370    1.000
    O11      O        0.32273    0.49190    0.08710    1.000
    O12      O        0.52853    0.44650    0.99660    1.000
