# CIF file generated by openbabel 3.1.0, see https://openbabel.org
data_I
_chemical_name_common 'GIQYEL_clean'
_cell_length_a 9.72
_cell_length_b 9.72
_cell_length_c 15.7262
_cell_angle_alpha 92.7414
_cell_angle_beta 92.7414
_cell_angle_gamma 99.086
_space_group_name_H-M_alt 'P 1'
_space_group_name_Hall 'P 1'
loop_
    _symmetry_equiv_pos_as_xyz
    x,y,z
loop_
    _atom_site_label
    _atom_site_type_symbol
    _atom_site_fract_x
    _atom_site_fract_y
    _atom_site_fract_z
    _atom_site_occupancy
    La1      La       0.01171    0.98829    0.75000    1.000
    La2      La       0.98829    0.01171    0.25000    1.000
    P1       P        0.35714    0.04578    0.64359    1.000
    P2       P        0.64810    0.97366    0.65131    1.000
    P3       P        0.95422    0.64286    0.85641    1.000
    P4       P        0.02634    0.35190    0.84869    1.000
    P5       P        0.64286    0.95422    0.35641    1.000
    P6       P        0.35190    0.02634    0.34869    1.000
    P7       P        0.04578    0.35714    0.14359    1.000
    P8       P        0.97366    0.64810    0.15131    1.000
    H1       H        0.47880    0.15960    0.81110    1.000
    H2       H        0.63470    0.12610    0.81060    1.000
    H3       H        0.58150    0.22450    0.74160    1.000
    H4       H        0.51100    0.82100    0.76300    1.000
    H5       H        0.84040    0.52120    0.68890    1.000
    H6       H        0.87390    0.36530    0.68940    1.000
    H7       H        0.77550    0.41850    0.75840    1.000
    H8       H        0.17900    0.48900    0.73700    1.000
    H9       H        0.52120    0.84040    0.18890    1.000
    H10      H        0.36530    0.87390    0.18940    1.000
    H11      H        0.41850    0.77550    0.25840    1.000
    H12      H        0.48900    0.17900    0.23700    1.000
    H13      H        0.15960    0.47880    0.31110    1.000
    H14      H        0.12610    0.63470    0.31060    1.000
    H15      H        0.22450    0.58150    0.24160    1.000
    H16      H        0.82100    0.51100    0.26300    1.000
    Ru1      Ru       0.54646    0.11972    0.50209    1.000
    Ru2      Ru       0.88028    0.45354    0.99791    1.000
    Ru3      Ru       0.45354    0.88028    0.49791    1.000
    Ru4      Ru       0.11972    0.54646    0.00209    1.000
    C1       C        0.50419    0.01501    0.71435    1.000
    C2       C        0.55427    0.14273    0.77486    1.000
    C3       C        0.98499    0.49581    0.78565    1.000
    C4       C        0.85727    0.44573    0.72514    1.000
    C5       C        0.49581    0.98499    0.28565    1.000
    C6       C        0.44573    0.85727    0.22514    1.000
    C7       C        0.01501    0.50419    0.21435    1.000
    C8       C        0.14273    0.55427    0.27486    1.000
    O1       O        0.41187    0.16827    0.58897    1.000
    O2       O        0.31161    0.91155    0.58512    1.000
    O3       O        0.24148    0.07834    0.69730    1.000
    O4       O        0.68985    0.10061    0.59704    1.000
    O5       O        0.59164    0.84398    0.59211    1.000
    O6       O        0.76628    0.94954    0.71056    1.000
    O7       O        0.45009    0.89809    0.76346    1.000
    O8       O        0.83173    0.58813    0.91103    1.000
    O9       O        0.08845    0.68839    0.91488    1.000
    O10      O        0.92166    0.75852    0.80270    1.000
    O11      O        0.89939    0.31015    0.90296    1.000
    O12      O        0.15602    0.40836    0.90789    1.000
    O13      O        0.05046    0.23372    0.78944    1.000
    O14      O        0.10191    0.54991    0.73654    1.000
    O15      O        0.58813    0.83173    0.41103    1.000
    O16      O        0.68839    0.08845    0.41488    1.000
    O17      O        0.75852    0.92166    0.30270    1.000
    O18      O        0.31015    0.89939    0.40296    1.000
    O19      O        0.40836    0.15602    0.40789    1.000
    O20      O        0.23372    0.05046    0.28944    1.000
    O21      O        0.54991    0.10191    0.23654    1.000
    O22      O        0.16827    0.41187    0.08897    1.000
    O23      O        0.91155    0.31161    0.08512    1.000
    O24      O        0.07834    0.24148    0.19730    1.000
    O25      O        0.10061    0.68985    0.09704    1.000
    O26      O        0.84398    0.59164    0.09211    1.000
    O27      O        0.94954    0.76628    0.21056    1.000
    O28      O        0.89809    0.45009    0.26346    1.000
