# CIF file generated by openbabel 3.1.0, see https://openbabel.org
data_I
_chemical_name_common 'image0'
_cell_length_a 36.873
_cell_length_b 9.3152
_cell_length_c 10.9288
_cell_angle_alpha 90
_cell_angle_beta 93.643
_cell_angle_gamma 90
_space_group_name_H-M_alt 'P 1'
_space_group_name_Hall 'P 1'
loop_
    _symmetry_equiv_pos_as_xyz
    x,y,z
loop_
    _atom_site_label
    _atom_site_type_symbol
    _atom_site_fract_x
    _atom_site_fract_y
    _atom_site_fract_z
    _atom_site_occupancy
    Cd1      Cd       0.20749    0.80608    0.39579    1.000
    N1       N        0.21940    0.98180    0.25000    1.000
    N2       N        0.22620    0.08210    0.07040    1.000
    N3       N        0.25040    0.15280    0.15710    1.000
    N4       N        0.18410    0.89470    0.07580    1.000
    H1       H        0.17960    0.89890    0.99770    1.000
    H2       H        0.17300    0.83290    0.11850    1.000
    N5       N        0.26140    0.12390    0.37310    1.000
    H3       H        0.27680    0.19310    0.37810    1.000
    H4       H        0.25640    0.07730    0.43790    1.000
    O1       O        0.15770    0.74690    0.28240    1.000
    O2       O        0.13730    0.92260    0.39420    1.000
    O3       O        0.06910    0.99460    0.37160    1.000
    H5       H        0.09030    0.99470    0.39950    1.000
    C1       C        0.13220    0.82700    0.31030    1.000
    C2       C        0.03250    0.88100    0.21060    1.000
    C3       C        0.06540    0.90000    0.27260    1.000
    C4       C        0.09560    0.81500    0.24530    1.000
    C5       C        0.09190    0.71700    0.15200    1.000
    H6       H        0.11100    0.65640    0.13690    1.000
    C6       C        0.05890    0.70900    0.07810    1.000
    C7       C        0.02890    0.79300    0.10740    1.000
    C8       C        0.99660    0.78700    0.02860    1.000
    H7       H        0.97670    0.84360    0.04390    1.000
    C9       C        0.99530    0.69600    0.93060    1.000
    H8       H        0.97430    0.69520    0.87860    1.000
    C10      C        0.02320    0.60500    0.90390    1.000
    H9       H        0.02050    0.53950    0.83960    1.000
    C11      C        0.05570    0.61400    0.97660    1.000
    H10      H        0.07540    0.55670    0.95840    1.000
    H11      H        0.00830    0.03520    0.31780    1.000
    C12      C        0.20870    0.98610    0.13180    1.000
    C13      C        0.24470    0.08820    0.26260    1.000
    Cd2      Cd       0.70749    0.30608    0.39579    1.000
    N6       N        0.71940    0.48180    0.25000    1.000
    N7       N        0.72620    0.58210    0.07040    1.000
    N8       N        0.75040    0.65280    0.15710    1.000
    N9       N        0.68410    0.39470    0.07580    1.000
    H12      H        0.67960    0.39890    0.99770    1.000
    H13      H        0.67300    0.33290    0.11850    1.000
    N10      N        0.76140    0.62390    0.37310    1.000
    H14      H        0.77680    0.69310    0.37810    1.000
    H15      H        0.75640    0.57730    0.43790    1.000
    O4       O        0.65770    0.24690    0.28240    1.000
    O5       O        0.63730    0.42260    0.39420    1.000
    O6       O        0.56910    0.49460    0.37160    1.000
    H16      H        0.59030    0.49470    0.39950    1.000
    C14      C        0.63220    0.32700    0.31030    1.000
    C15      C        0.53250    0.38100    0.21060    1.000
    C16      C        0.56540    0.40000    0.27260    1.000
    C17      C        0.59560    0.31500    0.24530    1.000
    C18      C        0.59190    0.21700    0.15200    1.000
    H17      H        0.61100    0.15640    0.13690    1.000
    C19      C        0.55890    0.20900    0.07810    1.000
    C20      C        0.52890    0.29300    0.10740    1.000
    C21      C        0.49660    0.28700    0.02860    1.000
    H18      H        0.47670    0.34360    0.04390    1.000
    C22      C        0.49530    0.19600    0.93060    1.000
    H19      H        0.47430    0.19520    0.87860    1.000
    C23      C        0.52320    0.10500    0.90390    1.000
    H20      H        0.52050    0.03950    0.83960    1.000
    C24      C        0.55570    0.11400    0.97660    1.000
    H21      H        0.57540    0.05670    0.95840    1.000
    H22      H        0.50830    0.53520    0.31780    1.000
    C25      C        0.70870    0.48610    0.13180    1.000
    C26      C        0.74470    0.58820    0.26260    1.000
    Cd3      Cd       0.79251    0.80608    0.10421    1.000
    N11      N        0.78060    0.98180    0.25000    1.000
    N12      N        0.77380    0.08210    0.42960    1.000
    N13      N        0.74960    0.15280    0.34290    1.000
    N14      N        0.81590    0.89470    0.42420    1.000
    H23      H        0.82040    0.89890    0.50230    1.000
    H24      H        0.82700    0.83290    0.38150    1.000
    N15      N        0.73860    0.12390    0.12690    1.000
    H25      H        0.72320    0.19310    0.12190    1.000
    H26      H        0.74360    0.07730    0.06210    1.000
    O7       O        0.84230    0.74690    0.21760    1.000
    O8       O        0.86270    0.92260    0.10580    1.000
    O9       O        0.93090    0.99460    0.12840    1.000
    H27      H        0.90970    0.99470    0.10050    1.000
    C27      C        0.86780    0.82700    0.18970    1.000
    C28      C        0.96750    0.88100    0.28940    1.000
    C29      C        0.93460    0.90000    0.22740    1.000
    C30      C        0.90440    0.81500    0.25470    1.000
    C31      C        0.90810    0.71700    0.34800    1.000
    H28      H        0.88900    0.65640    0.36310    1.000
    C32      C        0.94110    0.70900    0.42190    1.000
    C33      C        0.97110    0.79300    0.39260    1.000
    C34      C        0.00340    0.78700    0.47140    1.000
    H29      H        0.02330    0.84360    0.45610    1.000
    C35      C        0.00470    0.69600    0.56940    1.000
    H30      H        0.02570    0.69520    0.62140    1.000
    C36      C        0.97680    0.60500    0.59610    1.000
    H31      H        0.97950    0.53950    0.66040    1.000
    C37      C        0.94430    0.61400    0.52340    1.000
    H32      H        0.92460    0.55670    0.54160    1.000
    H33      H        0.99170    0.03520    0.18220    1.000
    C38      C        0.79130    0.98610    0.36820    1.000
    C39      C        0.75530    0.08820    0.23740    1.000
    Cd4      Cd       0.29251    0.30608    0.10421    1.000
    N16      N        0.28060    0.48180    0.25000    1.000
    N17      N        0.27380    0.58210    0.42960    1.000
    N18      N        0.24960    0.65280    0.34290    1.000
    N19      N        0.31590    0.39470    0.42420    1.000
    H34      H        0.32040    0.39890    0.50230    1.000
    H35      H        0.32700    0.33290    0.38150    1.000
    N20      N        0.23860    0.62390    0.12690    1.000
    H36      H        0.22320    0.69310    0.12190    1.000
    H37      H        0.24360    0.57730    0.06210    1.000
    O10      O        0.34230    0.24690    0.21760    1.000
    O11      O        0.36270    0.42260    0.10580    1.000
    O12      O        0.43090    0.49460    0.12840    1.000
    H38      H        0.40970    0.49470    0.10050    1.000
    C40      C        0.36780    0.32700    0.18970    1.000
    C41      C        0.46750    0.38100    0.28940    1.000
    C42      C        0.43460    0.40000    0.22740    1.000
    C43      C        0.40440    0.31500    0.25470    1.000
    C44      C        0.40810    0.21700    0.34800    1.000
    H39      H        0.38900    0.15640    0.36310    1.000
    C45      C        0.44110    0.20900    0.42190    1.000
    C46      C        0.47110    0.29300    0.39260    1.000
    C47      C        0.50340    0.28700    0.47140    1.000
    H40      H        0.52330    0.34360    0.45610    1.000
    C48      C        0.50470    0.19600    0.56940    1.000
    H41      H        0.52570    0.19520    0.62140    1.000
    C49      C        0.47680    0.10500    0.59610    1.000
    H42      H        0.47950    0.03950    0.66040    1.000
    C50      C        0.44430    0.11400    0.52340    1.000
    H43      H        0.42460    0.05670    0.54160    1.000
    H44      H        0.49170    0.53520    0.18220    1.000
    C51      C        0.29130    0.48610    0.36820    1.000
    C52      C        0.25530    0.58820    0.23740    1.000
    Cd5      Cd       0.79251    0.19392    0.60421    1.000
    N21      N        0.78060    0.01820    0.75000    1.000
    N22      N        0.77380    0.91790    0.92960    1.000
    N23      N        0.74960    0.84720    0.84290    1.000
    N24      N        0.81590    0.10530    0.92420    1.000
    H45      H        0.82040    0.10110    0.00230    1.000
    H46      H        0.82700    0.16710    0.88150    1.000
    N25      N        0.73860    0.87610    0.62690    1.000
    H47      H        0.72320    0.80690    0.62190    1.000
    H48      H        0.74360    0.92270    0.56210    1.000
    O13      O        0.84230    0.25310    0.71760    1.000
    O14      O        0.86270    0.07740    0.60580    1.000
    O15      O        0.93090    0.00540    0.62840    1.000
    H49      H        0.90970    0.00530    0.60050    1.000
    C53      C        0.86780    0.17300    0.68970    1.000
    C54      C        0.96750    0.11900    0.78940    1.000
    C55      C        0.93460    0.10000    0.72740    1.000
    C56      C        0.90440    0.18500    0.75470    1.000
    C57      C        0.90810    0.28300    0.84800    1.000
    H50      H        0.88900    0.34360    0.86310    1.000
    C58      C        0.94110    0.29100    0.92190    1.000
    C59      C        0.97110    0.20700    0.89260    1.000
    C60      C        0.00340    0.21300    0.97140    1.000
    H51      H        0.02330    0.15640    0.95610    1.000
    C61      C        0.00470    0.30400    0.06940    1.000
    H52      H        0.02570    0.30480    0.12140    1.000
    C62      C        0.97680    0.39500    0.09610    1.000
    H53      H        0.97950    0.46050    0.16040    1.000
    C63      C        0.94430    0.38600    0.02340    1.000
    H54      H        0.92460    0.44330    0.04160    1.000
    H55      H        0.99170    0.96480    0.68220    1.000
    C64      C        0.79130    0.01390    0.86820    1.000
    C65      C        0.75530    0.91180    0.73740    1.000
    Cd6      Cd       0.29251    0.69392    0.60421    1.000
    N26      N        0.28060    0.51820    0.75000    1.000
    N27      N        0.27380    0.41790    0.92960    1.000
    N28      N        0.24960    0.34720    0.84290    1.000
    N29      N        0.31590    0.60530    0.92420    1.000
    H56      H        0.32040    0.60110    0.00230    1.000
    H57      H        0.32700    0.66710    0.88150    1.000
    N30      N        0.23860    0.37610    0.62690    1.000
    H58      H        0.22320    0.30690    0.62190    1.000
    H59      H        0.24360    0.42270    0.56210    1.000
    O16      O        0.34230    0.75310    0.71760    1.000
    O17      O        0.36270    0.57740    0.60580    1.000
    O18      O        0.43090    0.50540    0.62840    1.000
    H60      H        0.40970    0.50530    0.60050    1.000
    C66      C        0.36780    0.67300    0.68970    1.000
    C67      C        0.46750    0.61900    0.78940    1.000
    C68      C        0.43460    0.60000    0.72740    1.000
    C69      C        0.40440    0.68500    0.75470    1.000
    C70      C        0.40810    0.78300    0.84800    1.000
    H61      H        0.38900    0.84360    0.86310    1.000
    C71      C        0.44110    0.79100    0.92190    1.000
    C72      C        0.47110    0.70700    0.89260    1.000
    C73      C        0.50340    0.71300    0.97140    1.000
    H62      H        0.52330    0.65640    0.95610    1.000
    C74      C        0.50470    0.80400    0.06940    1.000
    H63      H        0.52570    0.80480    0.12140    1.000
    C75      C        0.47680    0.89500    0.09610    1.000
    H64      H        0.47950    0.96050    0.16040    1.000
    C76      C        0.44430    0.88600    0.02340    1.000
    H65      H        0.42460    0.94330    0.04160    1.000
    H66      H        0.49170    0.46480    0.68220    1.000
    C77      C        0.29130    0.51390    0.86820    1.000
    C78      C        0.25530    0.41180    0.73740    1.000
    Cd7      Cd       0.20749    0.19392    0.89579    1.000
    N31      N        0.21940    0.01820    0.75000    1.000
    N32      N        0.22620    0.91790    0.57040    1.000
    N33      N        0.25040    0.84720    0.65710    1.000
    N34      N        0.18410    0.10530    0.57580    1.000
    H67      H        0.17960    0.10110    0.49770    1.000
    H68      H        0.17300    0.16710    0.61850    1.000
    N35      N        0.26140    0.87610    0.87310    1.000
    H69      H        0.27680    0.80690    0.87810    1.000
    H70      H        0.25640    0.92270    0.93790    1.000
    O19      O        0.15770    0.25310    0.78240    1.000
    O20      O        0.13730    0.07740    0.89420    1.000
    O21      O        0.06910    0.00540    0.87160    1.000
    H71      H        0.09030    0.00530    0.89950    1.000
    C79      C        0.13220    0.17300    0.81030    1.000
    C80      C        0.03250    0.11900    0.71060    1.000
    C81      C        0.06540    0.10000    0.77260    1.000
    C82      C        0.09560    0.18500    0.74530    1.000
    C83      C        0.09190    0.28300    0.65200    1.000
    H72      H        0.11100    0.34360    0.63690    1.000
    C84      C        0.05890    0.29100    0.57810    1.000
    C85      C        0.02890    0.20700    0.60740    1.000
    C86      C        0.99660    0.21300    0.52860    1.000
    H73      H        0.97670    0.15640    0.54390    1.000
    C87      C        0.99530    0.30400    0.43060    1.000
    H74      H        0.97430    0.30480    0.37860    1.000
    C88      C        0.02320    0.39500    0.40390    1.000
    H75      H        0.02050    0.46050    0.33960    1.000
    C89      C        0.05570    0.38600    0.47660    1.000
    H76      H        0.07540    0.44330    0.45840    1.000
    H77      H        0.00830    0.96480    0.81780    1.000
    C90      C        0.20870    0.01390    0.63180    1.000
    C91      C        0.24470    0.91180    0.76260    1.000
    Cd8      Cd       0.70749    0.69392    0.89579    1.000
    N36      N        0.71940    0.51820    0.75000    1.000
    N37      N        0.72620    0.41790    0.57040    1.000
    N38      N        0.75040    0.34720    0.65710    1.000
    N39      N        0.68410    0.60530    0.57580    1.000
    H78      H        0.67960    0.60110    0.49770    1.000
    H79      H        0.67300    0.66710    0.61850    1.000
    N40      N        0.76140    0.37610    0.87310    1.000
    H80      H        0.77680    0.30690    0.87810    1.000
    H81      H        0.75640    0.42270    0.93790    1.000
    O22      O        0.65770    0.75310    0.78240    1.000
    O23      O        0.63730    0.57740    0.89420    1.000
    O24      O        0.56910    0.50540    0.87160    1.000
    H82      H        0.59030    0.50530    0.89950    1.000
    C92      C        0.63220    0.67300    0.81030    1.000
    C93      C        0.53250    0.61900    0.71060    1.000
    C94      C        0.56540    0.60000    0.77260    1.000
    C95      C        0.59560    0.68500    0.74530    1.000
    C96      C        0.59190    0.78300    0.65200    1.000
    H83      H        0.61100    0.84360    0.63690    1.000
    C97      C        0.55890    0.79100    0.57810    1.000
    C98      C        0.52890    0.70700    0.60740    1.000
    C99      C        0.49660    0.71300    0.52860    1.000
    H84      H        0.47670    0.65640    0.54390    1.000
    C100     C        0.49530    0.80400    0.43060    1.000
    H85      H        0.47430    0.80480    0.37860    1.000
    C101     C        0.52320    0.89500    0.40390    1.000
    H86      H        0.52050    0.96050    0.33960    1.000
    C102     C        0.55570    0.88600    0.47660    1.000
    H87      H        0.57540    0.94330    0.45840    1.000
    H88      H        0.50830    0.46480    0.81780    1.000
    C103     C        0.70870    0.51390    0.63180    1.000
    C104     C        0.74470    0.41180    0.76260    1.000
    C105     C        0.00000    0.97400    0.25000    1.000
    C106     C        0.50000    0.47400    0.25000    1.000
    C107     C        0.00000    0.02600    0.75000    1.000
    C108     C        0.50000    0.52600    0.75000    1.000
