# CIF file generated by openbabel 3.1.0, see https://openbabel.org
data_I
_chemical_name_common 'image0'
_cell_length_a 7.6497
_cell_length_b 8.7364
_cell_length_c 10.0064
_cell_angle_alpha 86.498
_cell_angle_beta 89.456
_cell_angle_gamma 85.135
_space_group_name_H-M_alt 'P 1'
_space_group_name_Hall 'P 1'
loop_
    _symmetry_equiv_pos_as_xyz
    x,y,z
loop_
    _atom_site_label
    _atom_site_type_symbol
    _atom_site_fract_x
    _atom_site_fract_y
    _atom_site_fract_z
    _atom_site_occupancy
    La1      La       0.43049    0.11532    0.16902    1.000
    O1       O        0.12550    0.24257    0.13691    1.000
    O2       O        0.42570    0.36108    0.27972    1.000
    O3       O        0.59880    0.72430    0.04595    1.000
    O4       O        0.69820    0.03398    0.00663    1.000
    O5       O        0.49750    0.83180    0.23194    1.000
    N1       N        0.56870    0.54300    0.37290    1.000
    N2       N        0.97100    0.35290    0.96250    1.000
    O6       O        0.71430    0.24600    0.11300    1.000
    C1       C        0.91360    0.20510    0.93110    1.000
    H1       H        0.01360    0.12540    0.94010    1.000
    H2       H        0.87240    0.21060    0.83730    1.000
    C2       C        0.46390    0.42960    0.37990    1.000
    C3       C        0.61240    0.62430    0.48960    1.000
    H3       H        0.57350    0.73470    0.47240    1.000
    H4       H        0.74170    0.61610    0.49850    1.000
    C4       C        0.11910    0.51160    0.10920    1.000
    H5       H        0.09580    0.51880    0.20620    1.000
    H6       H        0.24710    0.51520    0.09530    1.000
    C5       C        0.76600    0.16030    0.02460    1.000
    C6       C        0.06910    0.35950    0.06960    1.000
    C7       C        0.65850    0.58260    0.24870    1.000
    H7       H        0.66120    0.49400    0.19130    1.000
    H8       H        0.78140    0.59950    0.26950    1.000
    C8       C        0.57560    0.72550    0.16960    1.000
    La2      La       0.56951    0.88468    0.83098    1.000
    O7       O        0.87450    0.75743    0.86309    1.000
    O8       O        0.57430    0.63892    0.72028    1.000
    O9       O        0.40120    0.27570    0.95405    1.000
    O10      O        0.30180    0.96602    0.99337    1.000
    O11      O        0.50250    0.16820    0.76806    1.000
    N3       N        0.43130    0.45700    0.62710    1.000
    N4       N        0.02900    0.64710    0.03750    1.000
    O12      O        0.28570    0.75400    0.88700    1.000
    C9       C        0.08640    0.79490    0.06890    1.000
    H9       H        0.98640    0.87460    0.05990    1.000
    H10      H        0.12760    0.78940    0.16270    1.000
    C10      C        0.53610    0.57040    0.62010    1.000
    C11      C        0.38760    0.37570    0.51040    1.000
    H11      H        0.42650    0.26530    0.52760    1.000
    H12      H        0.25830    0.38390    0.50150    1.000
    C12      C        0.88090    0.48840    0.89080    1.000
    H13      H        0.90420    0.48120    0.79380    1.000
    H14      H        0.75290    0.48480    0.90470    1.000
    C13      C        0.23400    0.83970    0.97540    1.000
    C14      C        0.93090    0.64050    0.93040    1.000
    C15      C        0.34150    0.41740    0.75130    1.000
    H15      H        0.33880    0.50600    0.80870    1.000
    H16      H        0.21860    0.40050    0.73050    1.000
    C16      C        0.42440    0.27450    0.83040    1.000
