# CIF file generated by openbabel 3.1.0, see https://openbabel.org
data_I
_chemical_name_common 'image0'
_cell_length_a 11.6426
_cell_length_b 5.5574
_cell_length_c 22.8446
_cell_angle_alpha 90
_cell_angle_beta 100.681
_cell_angle_gamma 90
_space_group_name_H-M_alt 'P 1'
_space_group_name_Hall 'P 1'
loop_
    _symmetry_equiv_pos_as_xyz
    x,y,z
loop_
    _atom_site_label
    _atom_site_type_symbol
    _atom_site_fract_x
    _atom_site_fract_y
    _atom_site_fract_z
    _atom_site_occupancy
    Ca1      Ca       0.63725    0.74145    0.22125    1.000
    S1       S        0.39739    0.53299    0.10609    1.000
    O1       O        0.25956    0.58773    0.80892    1.000
    O2       O        0.26333    0.97921    0.82817    1.000
    O3       O        0.98726    0.97435    0.24690    1.000
    O4       O        0.95839    0.57891    0.25634    1.000
    O5       O        0.41423    0.27672    0.10967    1.000
    O6       O        0.49453    0.69109    0.12907    1.000
    C1       C        0.27313    0.76430    0.84464    1.000
    C2       C        0.29730    0.70970    0.91011    1.000
    C3       C        0.26526    0.48910    0.93115    1.000
    H1       H        0.22530    0.37370    0.90410    1.000
    C4       C        0.29170    0.43800    0.99168    1.000
    H2       H        0.26900    0.28900    0.00650    1.000
    C5       C        0.35195    0.60830    0.03031    1.000
    C6       C        0.38114    0.83210    0.01029    1.000
    H3       H        0.41960    0.94880    0.03740    1.000
    C7       C        0.35291    0.88170    0.94973    1.000
    H4       H        0.37170    0.03420    0.93530    1.000
    C8       C        0.28003    0.60680    0.14147    1.000
    C9       C        0.19084    0.43860    0.14017    1.000
    H5       H        0.19120    0.29270    0.11850    1.000
    C10      C        0.10135    0.48790    0.17107    1.000
    H6       H        0.04100    0.37330    0.17150    1.000
    C11      C        0.10016    0.70520    0.20137    1.000
    C12      C        0.00677    0.75670    0.23766    1.000
    C13      C        0.18832    0.87430    0.20036    1.000
    H7       H        0.18570    0.02430    0.22000    1.000
    C14      C        0.28006    0.82550    0.17088    1.000
    H8       H        0.34110    0.93880    0.17090    1.000
    Ca2      Ca       0.86275    0.24145    0.27874    1.000
    S2       S        0.10261    0.03299    0.39391    1.000
    O7       O        0.24044    0.08773    0.69108    1.000
    O8       O        0.23667    0.47921    0.67183    1.000
    O9       O        0.51274    0.47435    0.25310    1.000
    O10      O        0.54161    0.07891    0.24366    1.000
    O11      O        0.08577    0.77672    0.39033    1.000
    O12      O        0.00547    0.19109    0.37093    1.000
    C15      C        0.22687    0.26430    0.65536    1.000
    C16      C        0.20270    0.20970    0.58989    1.000
    C17      C        0.23474    0.98910    0.56885    1.000
    H9       H        0.27470    0.87370    0.59590    1.000
    C18      C        0.20830    0.93800    0.50832    1.000
    H10      H        0.23100    0.78900    0.49350    1.000
    C19      C        0.14805    0.10830    0.46969    1.000
    C20      C        0.11886    0.33210    0.48971    1.000
    H11      H        0.08040    0.44880    0.46260    1.000
    C21      C        0.14709    0.38170    0.55027    1.000
    H12      H        0.12830    0.53420    0.56470    1.000
    C22      C        0.21997    0.10680    0.35853    1.000
    C23      C        0.30916    0.93860    0.35983    1.000
    H13      H        0.30880    0.79270    0.38150    1.000
    C24      C        0.39865    0.98790    0.32893    1.000
    H14      H        0.45900    0.87330    0.32850    1.000
    C25      C        0.39984    0.20520    0.29863    1.000
    C26      C        0.49323    0.25670    0.26234    1.000
    C27      C        0.31168    0.37430    0.29964    1.000
    H15      H        0.31430    0.52430    0.28000    1.000
    C28      C        0.21994    0.32550    0.32912    1.000
    H16      H        0.15890    0.43880    0.32910    1.000
    Ca3      Ca       0.36275    0.25855    0.77874    1.000
    S3       S        0.60261    0.46701    0.89391    1.000
    O13      O        0.74044    0.41227    0.19108    1.000
    O14      O        0.73667    0.02079    0.17183    1.000
    O15      O        0.01274    0.02565    0.75310    1.000
    O16      O        0.04161    0.42109    0.74366    1.000
    O17      O        0.58577    0.72328    0.89033    1.000
    O18      O        0.50547    0.30891    0.87093    1.000
    C29      C        0.72687    0.23570    0.15536    1.000
    C30      C        0.70270    0.29030    0.08989    1.000
    C31      C        0.73474    0.51090    0.06885    1.000
    H17      H        0.77470    0.62630    0.09590    1.000
    C32      C        0.70830    0.56200    0.00832    1.000
    H18      H        0.73100    0.71100    0.99350    1.000
    C33      C        0.64805    0.39170    0.96969    1.000
    C34      C        0.61886    0.16790    0.98971    1.000
    H19      H        0.58040    0.05120    0.96260    1.000
    C35      C        0.64709    0.11830    0.05027    1.000
    H20      H        0.62830    0.96580    0.06470    1.000
    C36      C        0.71997    0.39320    0.85853    1.000
    C37      C        0.80916    0.56140    0.85983    1.000
    H21      H        0.80880    0.70730    0.88150    1.000
    C38      C        0.89865    0.51210    0.82893    1.000
    H22      H        0.95900    0.62670    0.82850    1.000
    C39      C        0.89984    0.29480    0.79863    1.000
    C40      C        0.99323    0.24330    0.76234    1.000
    C41      C        0.81168    0.12570    0.79964    1.000
    H23      H        0.81430    0.97570    0.78000    1.000
    C42      C        0.71994    0.17450    0.82912    1.000
    H24      H        0.65890    0.06120    0.82910    1.000
    Ca4      Ca       0.13725    0.75855    0.72125    1.000
    S4       S        0.89739    0.96701    0.60609    1.000
    O19      O        0.75956    0.91227    0.30892    1.000
    O20      O        0.76333    0.52079    0.32817    1.000
    O21      O        0.48726    0.52565    0.74690    1.000
    O22      O        0.45839    0.92109    0.75634    1.000
    O23      O        0.91423    0.22328    0.60967    1.000
    O24      O        0.99453    0.80891    0.62907    1.000
    C43      C        0.77313    0.73570    0.34464    1.000
    C44      C        0.79730    0.79030    0.41011    1.000
    C45      C        0.76526    0.01090    0.43115    1.000
    H25      H        0.72530    0.12630    0.40410    1.000
    C46      C        0.79170    0.06200    0.49168    1.000
    H26      H        0.76900    0.21100    0.50650    1.000
    C47      C        0.85195    0.89170    0.53031    1.000
    C48      C        0.88114    0.66790    0.51029    1.000
    H27      H        0.91960    0.55120    0.53740    1.000
    C49      C        0.85291    0.61830    0.44973    1.000
    H28      H        0.87170    0.46580    0.43530    1.000
    C50      C        0.78003    0.89320    0.64147    1.000
    C51      C        0.69084    0.06140    0.64017    1.000
    H29      H        0.69120    0.20730    0.61850    1.000
    C52      C        0.60135    0.01210    0.67107    1.000
    H30      H        0.54100    0.12670    0.67150    1.000
    C53      C        0.60016    0.79480    0.70137    1.000
    C54      C        0.50677    0.74330    0.73766    1.000
    C55      C        0.68832    0.62570    0.70036    1.000
    H31      H        0.68570    0.47570    0.72000    1.000
    C56      C        0.78006    0.67450    0.67088    1.000
    H32      H        0.84110    0.56120    0.67090    1.000
