# CIF file generated by openbabel 3.1.0, see https://openbabel.org
data_I
_chemical_name_common 'image0'
_cell_length_a 12.104
_cell_length_b 12.104
_cell_length_c 12.104
_cell_angle_alpha 90
_cell_angle_beta 90
_cell_angle_gamma 90
_space_group_name_H-M_alt 'P 1'
_space_group_name_Hall 'P 1'
loop_
    _symmetry_equiv_pos_as_xyz
    x,y,z
loop_
    _atom_site_label
    _atom_site_type_symbol
    _atom_site_fract_x
    _atom_site_fract_y
    _atom_site_fract_z
    _atom_site_occupancy
    Fe1      Fe       0.00000    0.50000    0.00000    1.000
    Fe2      Fe       0.50000    0.50000    0.50000    1.000
    Fe3      Fe       0.00000    0.00000    0.50000    1.000
    Fe4      Fe       0.50000    0.00000    0.00000    1.000
    K1       K        0.00000    0.50000    0.50000    1.000
    K2       K        0.00000    0.00000    0.00000    1.000
    K3       K        0.50000    0.00000    0.50000    1.000
    K4       K        0.50000    0.50000    0.00000    1.000
    C1       C        0.98410    0.48410    0.15960    1.000
    N1       N        0.01900    0.51900    0.25380    1.000
    C2       C        0.98410    0.98410    0.65960    1.000
    N2       N        0.01900    0.01900    0.75380    1.000
    C3       C        0.48410    0.48410    0.65960    1.000
    N3       N        0.51900    0.51900    0.75380    1.000
    C4       C        0.01590    0.51590    0.15960    1.000
    N4       N        0.98100    0.48100    0.25380    1.000
    C5       C        0.01590    0.01590    0.65960    1.000
    N5       N        0.98100    0.98100    0.75380    1.000
    C6       C        0.01590    0.48410    0.84040    1.000
    N6       N        0.98100    0.51900    0.74620    1.000
    C7       C        0.01590    0.98410    0.34040    1.000
    N7       N        0.98100    0.01900    0.24620    1.000
    C8       C        0.98410    0.51590    0.84040    1.000
    N8       N        0.01900    0.48100    0.74620    1.000
    C9       C        0.98410    0.01590    0.34040    1.000
    N9       N        0.01900    0.98100    0.24620    1.000
    C10      C        0.48410    0.01590    0.84040    1.000
    N10      N        0.51900    0.98100    0.74620    1.000
    C11      C        0.15960    0.98410    0.48410    1.000
    N11      N        0.25380    0.01900    0.51900    1.000
    C12      C        0.65960    0.98410    0.98410    1.000
    N12      N        0.75380    0.01900    0.01900    1.000
    C13      C        0.65960    0.48410    0.48410    1.000
    N13      N        0.75380    0.51900    0.51900    1.000
    C14      C        0.15960    0.01590    0.51590    1.000
    N14      N        0.25380    0.98100    0.48100    1.000
    C15      C        0.65960    0.01590    0.01590    1.000
    N15      N        0.75380    0.98100    0.98100    1.000
    C16      C        0.84040    0.01590    0.48410    1.000
    N16      N        0.74620    0.98100    0.51900    1.000
    C17      C        0.34040    0.01590    0.98410    1.000
    N17      N        0.24620    0.98100    0.01900    1.000
    C18      C        0.84040    0.98410    0.51590    1.000
    N18      N        0.74620    0.01900    0.48100    1.000
    C19      C        0.84040    0.48410    0.01590    1.000
    N19      N        0.74620    0.51900    0.98100    1.000
    C20      C        0.34040    0.98410    0.01590    1.000
    N20      N        0.24620    0.01900    0.98100    1.000
    C21      C        0.48410    0.15960    0.98410    1.000
    N21      N        0.51900    0.25380    0.01900    1.000
    C22      C        0.48410    0.65960    0.48410    1.000
    N22      N        0.51900    0.75380    0.51900    1.000
    C23      C        0.51590    0.15960    0.01590    1.000
    N23      N        0.48100    0.25380    0.98100    1.000
    C24      C        0.51590    0.65960    0.51590    1.000
    N24      N        0.48100    0.75380    0.48100    1.000
    C25      C        0.01590    0.65960    0.01590    1.000
    N25      N        0.98100    0.75380    0.98100    1.000
    C26      C        0.48410    0.84040    0.01590    1.000
    N26      N        0.51900    0.74620    0.98100    1.000
    C27      C        0.48410    0.34040    0.51590    1.000
    N27      N        0.51900    0.24620    0.48100    1.000
    C28      C        0.51590    0.84040    0.98410    1.000
    N28      N        0.48100    0.74620    0.01900    1.000
    C29      C        0.51590    0.34040    0.48410    1.000
    N29      N        0.48100    0.24620    0.51900    1.000
    C30      C        0.01590    0.84040    0.48410    1.000
    N30      N        0.98100    0.74620    0.51900    1.000
    C31      C        0.48410    0.98410    0.84040    1.000
    N31      N        0.51900    0.01900    0.74620    1.000
    C32      C        0.48410    0.48410    0.34040    1.000
    N32      N        0.51900    0.51900    0.24620    1.000
    C33      C        0.51590    0.01590    0.84040    1.000
    N33      N        0.48100    0.98100    0.74620    1.000
    C34      C        0.51590    0.51590    0.34040    1.000
    N34      N        0.48100    0.48100    0.24620    1.000
    C35      C        0.01590    0.01590    0.34040    1.000
    N35      N        0.98100    0.98100    0.24620    1.000
    C36      C        0.48410    0.01590    0.15960    1.000
    N36      N        0.51900    0.98100    0.25380    1.000
    C37      C        0.48410    0.51590    0.65960    1.000
    N37      N        0.51900    0.48100    0.75380    1.000
    C38      C        0.51590    0.98410    0.15960    1.000
    N38      N        0.48100    0.01900    0.25380    1.000
    C39      C        0.51590    0.48410    0.65960    1.000
    N39      N        0.48100    0.51900    0.75380    1.000
    C40      C        0.01590    0.48410    0.15960    1.000
    N40      N        0.98100    0.51900    0.25380    1.000
    C41      C        0.98410    0.15960    0.51590    1.000
    N41      N        0.01900    0.25380    0.48100    1.000
    C42      C        0.98410    0.65960    0.01590    1.000
    N42      N        0.01900    0.75380    0.98100    1.000
    C43      C        0.48410    0.15960    0.01590    1.000
    N43      N        0.51900    0.25380    0.98100    1.000
    C44      C        0.01590    0.15960    0.48410    1.000
    N44      N        0.98100    0.25380    0.51900    1.000
    C45      C        0.01590    0.65960    0.98410    1.000
    N45      N        0.98100    0.75380    0.01900    1.000
    C46      C        0.01590    0.84040    0.51590    1.000
    N46      N        0.98100    0.74620    0.48100    1.000
    C47      C        0.01590    0.34040    0.01590    1.000
    N47      N        0.98100    0.24620    0.98100    1.000
    C48      C        0.98410    0.84040    0.48410    1.000
    N48      N        0.01900    0.74620    0.51900    1.000
    C49      C        0.98410    0.34040    0.98410    1.000
    N49      N        0.01900    0.24620    0.01900    1.000
    C50      C        0.48410    0.34040    0.48410    1.000
    N50      N        0.51900    0.24620    0.51900    1.000
    C51      C        0.15960    0.48410    0.01590    1.000
    N51      N        0.25380    0.51900    0.98100    1.000
    C52      C        0.65960    0.48410    0.51590    1.000
    N52      N        0.75380    0.51900    0.48100    1.000
    C53      C        0.15960    0.51590    0.98410    1.000
    N53      N        0.25380    0.48100    0.01900    1.000
    C54      C        0.15960    0.01590    0.48410    1.000
    N54      N        0.25380    0.98100    0.51900    1.000
    C55      C        0.65960    0.51590    0.48410    1.000
    N55      N        0.75380    0.48100    0.51900    1.000
    C56      C        0.84040    0.48410    0.98410    1.000
    N56      N        0.74620    0.51900    0.01900    1.000
    C57      C        0.34040    0.48410    0.48410    1.000
    N57      N        0.24620    0.51900    0.51900    1.000
    C58      C        0.84040    0.51590    0.01590    1.000
    N58      N        0.74620    0.48100    0.98100    1.000
    C59      C        0.34040    0.51590    0.51590    1.000
    N59      N        0.24620    0.48100    0.48100    1.000
    C60      C        0.34040    0.01590    0.01590    1.000
    N60      N        0.24620    0.98100    0.98100    1.000
    C61      C        0.01590    0.51590    0.84040    1.000
    N61      N        0.98100    0.48100    0.74620    1.000
    C62      C        0.98410    0.48410    0.84040    1.000
    N62      N        0.01900    0.51900    0.74620    1.000
    C63      C        0.98410    0.98410    0.34040    1.000
    N63      N        0.01900    0.01900    0.24620    1.000
    C64      C        0.98410    0.51590    0.15960    1.000
    N64      N        0.01900    0.48100    0.25380    1.000
    C65      C        0.98410    0.01590    0.65960    1.000
    N65      N        0.01900    0.98100    0.75380    1.000
    C66      C        0.01590    0.98410    0.65960    1.000
    N66      N        0.98100    0.01900    0.75380    1.000
    C67      C        0.84040    0.01590    0.51590    1.000
    N67      N        0.74620    0.98100    0.48100    1.000
    C68      C        0.84040    0.98410    0.48410    1.000
    N68      N        0.74620    0.01900    0.51900    1.000
    C69      C        0.34040    0.98410    0.98410    1.000
    N69      N        0.24620    0.01900    0.01900    1.000
    C70      C        0.15960    0.98410    0.51590    1.000
    N70      N        0.25380    0.01900    0.48100    1.000
    C71      C        0.65960    0.98410    0.01590    1.000
    N71      N        0.75380    0.01900    0.98100    1.000
    C72      C        0.65960    0.01590    0.98410    1.000
    N72      N        0.75380    0.98100    0.01900    1.000
    C73      C        0.51590    0.84040    0.01590    1.000
    N73      N        0.48100    0.74620    0.98100    1.000
    C74      C        0.51590    0.34040    0.51590    1.000
    N74      N        0.48100    0.24620    0.48100    1.000
    C75      C        0.48410    0.84040    0.98410    1.000
    N75      N        0.51900    0.74620    0.01900    1.000
    C76      C        0.51590    0.15960    0.98410    1.000
    N76      N        0.48100    0.25380    0.01900    1.000
    C77      C        0.51590    0.65960    0.48410    1.000
    N77      N        0.48100    0.75380    0.51900    1.000
    C78      C        0.48410    0.65960    0.51590    1.000
    N78      N        0.51900    0.75380    0.48100    1.000
    C79      C        0.51590    0.01590    0.15960    1.000
    N79      N        0.48100    0.98100    0.25380    1.000
    C80      C        0.51590    0.51590    0.65960    1.000
    N80      N        0.48100    0.48100    0.75380    1.000
    C81      C        0.48410    0.98410    0.15960    1.000
    N81      N        0.51900    0.01900    0.25380    1.000
    C82      C        0.51590    0.98410    0.84040    1.000
    N82      N        0.48100    0.01900    0.74620    1.000
    C83      C        0.51590    0.48410    0.34040    1.000
    N83      N        0.48100    0.51900    0.24620    1.000
    C84      C        0.48410    0.51590    0.34040    1.000
    N84      N        0.51900    0.48100    0.24620    1.000
    C85      C        0.01590    0.34040    0.98410    1.000
    N85      N        0.98100    0.24620    0.01900    1.000
    C86      C        0.98410    0.84040    0.51590    1.000
    N86      N        0.01900    0.74620    0.48100    1.000
    C87      C        0.98410    0.34040    0.01590    1.000
    N87      N        0.01900    0.24620    0.98100    1.000
    C88      C        0.98410    0.15960    0.48410    1.000
    N88      N        0.01900    0.25380    0.51900    1.000
    C89      C        0.98410    0.65960    0.98410    1.000
    N89      N        0.01900    0.75380    0.01900    1.000
    C90      C        0.01590    0.15960    0.51590    1.000
    N90      N        0.98100    0.25380    0.48100    1.000
    C91      C        0.84040    0.51590    0.98410    1.000
    N91      N        0.74620    0.48100    0.01900    1.000
    C92      C        0.34040    0.51590    0.48410    1.000
    N92      N        0.24620    0.48100    0.51900    1.000
    C93      C        0.34040    0.48410    0.51590    1.000
    N93      N        0.24620    0.51900    0.48100    1.000
    C94      C        0.15960    0.51590    0.01590    1.000
    N94      N        0.25380    0.48100    0.98100    1.000
    C95      C        0.65960    0.51590    0.51590    1.000
    N95      N        0.75380    0.48100    0.48100    1.000
    C96      C        0.15960    0.48410    0.98410    1.000
    N96      N        0.25380    0.51900    0.01900    1.000
