# CIF file generated by openbabel 3.1.0, see https://openbabel.org
data_I
_chemical_name_common 'image0'
_cell_length_a 7.5781
_cell_length_b 9.8113
_cell_length_c 11.7986
_cell_angle_alpha 114.06
_cell_angle_beta 108.045
_cell_angle_gamma 91.344
_space_group_name_H-M_alt 'P 1'
_space_group_name_Hall 'P 1'
loop_
    _symmetry_equiv_pos_as_xyz
    x,y,z
loop_
    _atom_site_label
    _atom_site_type_symbol
    _atom_site_fract_x
    _atom_site_fract_y
    _atom_site_fract_z
    _atom_site_occupancy
    Cd1      Cd       0.24247    0.48197    0.00163    1.000
    O1       O        0.14000    0.22810    0.84760    1.000
    O2       O        0.41090    0.43250    0.85040    1.000
    O3       O        0.93590    0.41740    0.85830    1.000
    O4       O        0.64300    0.60100    0.83920    1.000
    C1       C        0.96400    0.26000    0.80800    1.000
    C2       C        0.80800    0.14700    0.68800    1.000
    C3       C        0.61300    0.17900    0.64950    1.000
    H1       H        0.57120    0.26730    0.69940    1.000
    C4       C        0.50800    0.06900    0.53680    1.000
    C5       C        0.83600    0.99900    0.62200    1.000
    H2       H        0.95300    0.97030    0.65580    1.000
    C6       C        0.43400    0.52000    0.79800    1.000
    C7       C        0.30300    0.52200    0.68230    1.000
    C8       C        0.35500    0.56400    0.59600    1.000
    H3       H        0.48450    0.59550    0.61600    1.000
    C9       C        0.22600    0.56200    0.48400    1.000
    H4       H        0.26600    0.58250    0.42330    1.000
    C10      C        0.09000    0.48300    0.65760    1.000
    H5       H        0.03890    0.46640    0.71620    1.000
    C11      C        0.00800    0.52400    0.45950    1.000
    C12      C        0.29900    0.10500    0.48800    1.000
    H6       H        0.27120    0.20080    0.53670    1.000
    Cd2      Cd       0.75753    0.51803    0.99837    1.000
    O5       O        0.86000    0.77190    0.15240    1.000
    O6       O        0.58910    0.56750    0.14960    1.000
    O7       O        0.06410    0.58260    0.14170    1.000
    O8       O        0.35700    0.39900    0.16080    1.000
    C13      C        0.03600    0.74000    0.19200    1.000
    C14      C        0.19200    0.85300    0.31200    1.000
    C15      C        0.38700    0.82100    0.35050    1.000
    H7       H        0.42880    0.73270    0.30060    1.000
    C16      C        0.49200    0.93100    0.46320    1.000
    C17      C        0.16400    0.00100    0.37800    1.000
    H8       H        0.04700    0.02970    0.34420    1.000
    C18      C        0.56600    0.48000    0.20200    1.000
    C19      C        0.69700    0.47800    0.31770    1.000
    C20      C        0.64500    0.43600    0.40400    1.000
    H9       H        0.51550    0.40450    0.38400    1.000
    C21      C        0.77400    0.43800    0.51600    1.000
    H10      H        0.73400    0.41750    0.57670    1.000
    C22      C        0.91000    0.51700    0.34240    1.000
    H11      H        0.96110    0.53360    0.28380    1.000
    C23      C        0.99200    0.47600    0.54050    1.000
    C24      C        0.70100    0.89500    0.51200    1.000
    H12      H        0.72880    0.79920    0.46330    1.000
