# CIF file generated by openbabel 3.1.0, see https://openbabel.org
data_I
_chemical_name_common 'image0'
_cell_length_a 9.3272
_cell_length_b 21.377
_cell_length_c 21.377
_cell_angle_alpha 90
_cell_angle_beta 90
_cell_angle_gamma 90
_space_group_name_H-M_alt 'P 1'
_space_group_name_Hall 'P 1'
loop_
    _symmetry_equiv_pos_as_xyz
    x,y,z
loop_
    _atom_site_label
    _atom_site_type_symbol
    _atom_site_fract_x
    _atom_site_fract_y
    _atom_site_fract_z
    _atom_site_occupancy
    Zn1      Zn       0.42272    0.99694    0.64694    1.000
    C1       C        0.13660    0.95129    0.60266    1.000
    H1       H        0.10686    0.94020    0.64268    1.000
    C2       C        0.25540    0.98573    0.52591    1.000
    H2       H        0.32873    0.00427    0.50300    1.000
    C3       C        0.25200    0.93750    0.24905    1.000
    H3       H        0.31736    0.97000    0.25389    1.000
    C4       C        0.08270    0.87898    0.21814    1.000
    H4       H        0.00487    0.86484    0.19490    1.000
    C5       C        0.05980    0.78660    0.72760    1.000
    H5       H        0.03110    0.82588    0.71364    1.000
    C6       C        0.07850    0.70380    0.77620    1.000
    H6       H        0.06061    0.67252    0.80541    1.000
    C7       C        0.92900    0.91019    0.54159    1.000
    C8       C        0.90320    0.88144    0.48438    1.000
    H7       H        0.97268    0.88210    0.45318    1.000
    C9       C        0.77320    0.85175    0.47417    1.000
    H8       H        0.75601    0.83224    0.43602    1.000
    C10      C        0.66760    0.85080    0.52050    1.000
    C11      C        0.69760    0.87818    0.57802    1.000
    H9       H        0.62982    0.87651    0.60988    1.000
    C12      C        0.82720    0.90786    0.58834    1.000
    H10      H        0.84583    0.92629    0.62690    1.000
    C13      C        0.32970    0.86903    0.33784    1.000
    C14      C        0.33010    0.80703    0.35831    1.000
    H11      H        0.28466    0.77608    0.33504    1.000
    C15      C        0.39850    0.79234    0.41323    1.000
    H12      H        0.39746    0.75142    0.42799    1.000
    C16      C        0.46970    0.83893    0.44692    1.000
    C17      C        0.47400    0.90017    0.42445    1.000
    H13      H        0.52500    0.93070    0.44602    1.000
    C18      C        0.40250    0.91514    0.37031    1.000
    H14      H        0.40311    0.95606    0.35554    1.000
    C19      C        0.43880    0.80358    0.55428    1.000
    C20      C        0.48870    0.76663    0.60340    1.000
    H15      H        0.58343    0.75308    0.60324    1.000
    C21      C        0.40010    0.74980    0.65219    1.000
    H16      H        0.43565    0.72639    0.68542    1.000
    C22      C        0.25750    0.76813    0.65122    1.000
    C23      C        0.20420    0.80164    0.60138    1.000
    H17      H        0.10733    0.81193    0.60008    1.000
    C24      C        0.29360    0.82007    0.55327    1.000
    H18      H        0.25724    0.84346    0.52019    1.000
    C25      C        0.63540    0.04577    0.56060    1.000
    C26      C        0.59950    0.40042    0.76946    1.000
    C27      C        0.78320    0.07528    0.55603    1.000
    C28      C        0.87910    0.07240    0.60530    1.000
    H19      H        0.85201    0.05297    0.64240    1.000
    C29      C        0.01640    0.09825    0.60000    1.000
    H20      H        0.07928    0.09622    0.63372    1.000
    C30      C        0.05970    0.12702    0.54470    1.000
    C31      C        0.96410    0.12790    0.49490    1.000
    H21      H        0.99164    0.14571    0.45709    1.000
    C32      C        0.82800    0.10270    0.50110    1.000
    H22      H        0.76532    0.10425    0.46725    1.000
    C33      C        0.54560    0.35243    0.72361    1.000
    C34      C        0.64100    0.31990    0.68515    1.000
    H23      H        0.73884    0.32752    0.68873    1.000
    C35      C        0.59330    0.27663    0.64195    1.000
    H24      H        0.65941    0.25537    0.61730    1.000
    C36      C        0.44560    0.26422    0.63465    1.000
    C37      C        0.35120    0.29540    0.67470    1.000
    H25      H        0.25346    0.28738    0.67154    1.000
    C38      C        0.39920    0.33800    0.71903    1.000
    H26      H        0.33401    0.35708    0.74584    1.000
    C39      C        0.39410    0.22123    0.58449    1.000
    C40      C        0.47350    0.21230    0.53034    1.000
    H27      H        0.56378    0.23055    0.52701    1.000
    C41      C        0.42110    0.17690    0.48110    1.000
    H28      H        0.47524    0.17198    0.44490    1.000
    C42      C        0.28770    0.14870    0.48600    1.000
    H29      H        0.25333    0.12447    0.45312    1.000
    C43      C        0.20470    0.15626    0.53943    1.000
    C44      C        0.26010    0.19199    0.58805    1.000
    H30      H        0.20614    0.19664    0.62433    1.000
    N1       N        0.26070    0.97896    0.58831    1.000
    N2       N        0.06240    0.94221    0.55021    1.000
    N3       N        0.13790    0.96399    0.49994    1.000
    N4       N        0.14830    0.93555    0.20684    1.000
    N5       N        0.24810    0.88560    0.28353    1.000
    N6       N        0.13850    0.84650    0.26431    1.000
    N7       N        0.00230    0.75710    0.77560    1.000
    N8       N        0.16590    0.75237    0.70153    1.000
    N9       N        0.18080    0.69780    0.73330    1.000
    N10      N        0.53240    0.82371    0.50651    1.000
    O1       O        0.59270    0.03859    0.61752    1.000
    O2       O        0.57030    0.02970    0.51444    1.000
    O3       O        0.50400    0.42541    0.80520    1.000
    O4       O        0.72820    0.41497    0.77038    1.000
    Zn2      Zn       0.07728    0.00306    0.14694    1.000
    C45      C        0.36340    0.04871    0.10266    1.000
    H31      H        0.39314    0.05980    0.14268    1.000
    C46      C        0.24460    0.01427    0.02591    1.000
    H32      H        0.17127    0.99573    0.00300    1.000
    C47      C        0.24800    0.06250    0.74905    1.000
    H33      H        0.18264    0.03000    0.75389    1.000
    C48      C        0.41730    0.12102    0.71814    1.000
    H34      H        0.49513    0.13516    0.69490    1.000
    C49      C        0.44020    0.21340    0.22760    1.000
    H35      H        0.46890    0.17412    0.21364    1.000
    C50      C        0.42150    0.29620    0.27620    1.000
    H36      H        0.43939    0.32748    0.30541    1.000
    C51      C        0.57100    0.08981    0.04159    1.000
    C52      C        0.59680    0.11856    0.98438    1.000
    H37      H        0.52732    0.11790    0.95318    1.000
    C53      C        0.72680    0.14825    0.97417    1.000
    H38      H        0.74399    0.16776    0.93602    1.000
    C54      C        0.83240    0.14920    0.02050    1.000
    C55      C        0.80240    0.12182    0.07802    1.000
    H39      H        0.87018    0.12349    0.10988    1.000
    C56      C        0.67280    0.09214    0.08834    1.000
    H40      H        0.65417    0.07371    0.12690    1.000
    C57      C        0.17030    0.13097    0.83784    1.000
    C58      C        0.16990    0.19297    0.85831    1.000
    H41      H        0.21534    0.22392    0.83504    1.000
    C59      C        0.10150    0.20766    0.91323    1.000
    H42      H        0.10254    0.24858    0.92799    1.000
    C60      C        0.03030    0.16107    0.94692    1.000
    C61      C        0.02600    0.09983    0.92445    1.000
    H43      H        0.97500    0.06930    0.94602    1.000
    C62      C        0.09750    0.08486    0.87031    1.000
    H44      H        0.09689    0.04394    0.85554    1.000
    C63      C        0.06120    0.19642    0.05428    1.000
    C64      C        0.01130    0.23337    0.10340    1.000
    H45      H        0.91657    0.24692    0.10324    1.000
    C65      C        0.09990    0.25020    0.15219    1.000
    H46      H        0.06435    0.27361    0.18542    1.000
    C66      C        0.24250    0.23187    0.15122    1.000
    C67      C        0.29580    0.19836    0.10138    1.000
    H47      H        0.39267    0.18807    0.10008    1.000
    C68      C        0.20640    0.17993    0.05327    1.000
    H48      H        0.24276    0.15654    0.02019    1.000
    C69      C        0.86460    0.95423    0.06060    1.000
    C70      C        0.90050    0.59958    0.26946    1.000
    C71      C        0.71680    0.92472    0.05603    1.000
    C72      C        0.62090    0.92760    0.10530    1.000
    H49      H        0.64799    0.94703    0.14240    1.000
    C73      C        0.48360    0.90175    0.10000    1.000
    H50      H        0.42072    0.90378    0.13372    1.000
    C74      C        0.44030    0.87298    0.04470    1.000
    C75      C        0.53590    0.87210    0.99490    1.000
    H51      H        0.50836    0.85429    0.95709    1.000
    C76      C        0.67200    0.89730    0.00110    1.000
    H52      H        0.73468    0.89575    0.96725    1.000
    C77      C        0.95440    0.64757    0.22361    1.000
    C78      C        0.85900    0.68010    0.18515    1.000
    H53      H        0.76116    0.67248    0.18873    1.000
    C79      C        0.90670    0.72337    0.14195    1.000
    H54      H        0.84059    0.74463    0.11730    1.000
    C80      C        0.05440    0.73578    0.13465    1.000
    C81      C        0.14880    0.70460    0.17470    1.000
    H55      H        0.24654    0.71262    0.17154    1.000
    C82      C        0.10080    0.66200    0.21903    1.000
    H56      H        0.16599    0.64292    0.24584    1.000
    C83      C        0.10590    0.77877    0.08449    1.000
    C84      C        0.02650    0.78770    0.03034    1.000
    H57      H        0.93622    0.76945    0.02701    1.000
    C85      C        0.07890    0.82310    0.98110    1.000
    H58      H        0.02476    0.82802    0.94490    1.000
    C86      C        0.21230    0.85130    0.98600    1.000
    H59      H        0.24667    0.87553    0.95312    1.000
    C87      C        0.29530    0.84374    0.03943    1.000
    C88      C        0.23990    0.80801    0.08805    1.000
    H60      H        0.29386    0.80336    0.12433    1.000
    N11      N        0.23930    0.02104    0.08831    1.000
    N12      N        0.43760    0.05779    0.05021    1.000
    N13      N        0.36210    0.03601    0.99994    1.000
    N14      N        0.35170    0.06445    0.70684    1.000
    N15      N        0.25190    0.11440    0.78353    1.000
    N16      N        0.36150    0.15350    0.76431    1.000
    N17      N        0.49770    0.24290    0.27560    1.000
    N18      N        0.33410    0.24763    0.20153    1.000
    N19      N        0.31920    0.30220    0.23330    1.000
    N20      N        0.96760    0.17629    0.00651    1.000
    O5       O        0.90730    0.96141    0.11752    1.000
    O6       O        0.92970    0.97030    0.01444    1.000
    O7       O        0.99600    0.57459    0.30520    1.000
    O8       O        0.77180    0.58503    0.27038    1.000
    Zn3      Zn       0.57728    0.49694    0.85306    1.000
    C89      C        0.86340    0.45129    0.89734    1.000
    H61      H        0.89314    0.44020    0.85732    1.000
    C90      C        0.74460    0.48573    0.97409    1.000
    H62      H        0.67127    0.50427    0.99700    1.000
    C91      C        0.74800    0.43750    0.25095    1.000
    H63      H        0.68264    0.47000    0.24611    1.000
    C92      C        0.91730    0.37898    0.28186    1.000
    H64      H        0.99513    0.36484    0.30510    1.000
    C93      C        0.94020    0.28660    0.77240    1.000
    H65      H        0.96890    0.32588    0.78636    1.000
    C94      C        0.92150    0.20380    0.72380    1.000
    H66      H        0.93939    0.17252    0.69459    1.000
    C95      C        0.07100    0.41019    0.95841    1.000
    C96      C        0.09680    0.38144    0.01562    1.000
    H67      H        0.02732    0.38210    0.04682    1.000
    C97      C        0.22680    0.35175    0.02583    1.000
    H68      H        0.24399    0.33224    0.06398    1.000
    C98      C        0.33240    0.35080    0.97950    1.000
    C99      C        0.30240    0.37818    0.92198    1.000
    H69      H        0.37018    0.37651    0.89012    1.000
    C100     C        0.17280    0.40786    0.91166    1.000
    H70      H        0.15417    0.42629    0.87310    1.000
    C101     C        0.67030    0.36903    0.16216    1.000
    C102     C        0.66990    0.30703    0.14169    1.000
    H71      H        0.71534    0.27608    0.16496    1.000
    C103     C        0.60150    0.29234    0.08677    1.000
    H72      H        0.60254    0.25142    0.07201    1.000
    C104     C        0.53030    0.33893    0.05308    1.000
    C105     C        0.52600    0.40017    0.07555    1.000
    H73      H        0.47500    0.43070    0.05398    1.000
    C106     C        0.59750    0.41514    0.12969    1.000
    H74      H        0.59689    0.45606    0.14446    1.000
    C107     C        0.56120    0.30358    0.94572    1.000
    C108     C        0.51130    0.26663    0.89660    1.000
    H75      H        0.41657    0.25308    0.89676    1.000
    C109     C        0.59990    0.24980    0.84781    1.000
    H76      H        0.56435    0.22639    0.81458    1.000
    C110     C        0.74250    0.26813    0.84878    1.000
    C111     C        0.79580    0.30164    0.89862    1.000
    H77      H        0.89267    0.31193    0.89992    1.000
    C112     C        0.70640    0.32007    0.94673    1.000
    H78      H        0.74276    0.34346    0.97981    1.000
    C113     C        0.36460    0.54577    0.93940    1.000
    C114     C        0.40050    0.90042    0.73054    1.000
    C115     C        0.21680    0.57528    0.94397    1.000
    C116     C        0.12090    0.57240    0.89470    1.000
    H79      H        0.14799    0.55297    0.85760    1.000
    C117     C        0.98360    0.59825    0.90000    1.000
    H80      H        0.92072    0.59622    0.86628    1.000
    C118     C        0.94030    0.62702    0.95530    1.000
    C119     C        0.03590    0.62790    0.00510    1.000
    H81      H        0.00836    0.64571    0.04291    1.000
    C120     C        0.17200    0.60270    0.99890    1.000
    H82      H        0.23468    0.60425    0.03275    1.000
    C121     C        0.45440    0.85243    0.77639    1.000
    C122     C        0.35900    0.81990    0.81485    1.000
    H83      H        0.26116    0.82752    0.81127    1.000
    C123     C        0.40670    0.77663    0.85805    1.000
    H84      H        0.34059    0.75537    0.88270    1.000
    C124     C        0.55440    0.76422    0.86535    1.000
    C125     C        0.64880    0.79540    0.82530    1.000
    H85      H        0.74654    0.78738    0.82846    1.000
    C126     C        0.60080    0.83800    0.78097    1.000
    H86      H        0.66599    0.85708    0.75416    1.000
    C127     C        0.60590    0.72123    0.91551    1.000
    C128     C        0.52650    0.71230    0.96966    1.000
    H87      H        0.43622    0.73055    0.97299    1.000
    C129     C        0.57890    0.67690    0.01890    1.000
    H88      H        0.52476    0.67198    0.05510    1.000
    C130     C        0.71230    0.64870    0.01400    1.000
    H89      H        0.74667    0.62447    0.04688    1.000
    C131     C        0.79530    0.65626    0.96057    1.000
    C132     C        0.73990    0.69199    0.91195    1.000
    H90      H        0.79386    0.69664    0.87567    1.000
    N21      N        0.73930    0.47896    0.91169    1.000
    N22      N        0.93760    0.44221    0.94979    1.000
    N23      N        0.86210    0.46399    0.00006    1.000
    N24      N        0.85170    0.43555    0.29316    1.000
    N25      N        0.75190    0.38560    0.21647    1.000
    N26      N        0.86150    0.34650    0.23569    1.000
    N27      N        0.99770    0.25710    0.72440    1.000
    N28      N        0.83410    0.25237    0.79847    1.000
    N29      N        0.81920    0.19780    0.76670    1.000
    N30      N        0.46760    0.32371    0.99349    1.000
    O9       O        0.40730    0.53859    0.88248    1.000
    O10      O        0.42970    0.52970    0.98556    1.000
    O11      O        0.49600    0.92541    0.69480    1.000
    O12      O        0.27180    0.91497    0.72962    1.000
    Zn4      Zn       0.92272    0.50306    0.35306    1.000
    C133     C        0.63660    0.54871    0.39734    1.000
    H91      H        0.60686    0.55980    0.35732    1.000
    C134     C        0.75540    0.51427    0.47409    1.000
    H92      H        0.82873    0.49573    0.49700    1.000
    C135     C        0.75200    0.56250    0.75095    1.000
    H93      H        0.81736    0.53000    0.74611    1.000
    C136     C        0.58270    0.62102    0.78186    1.000
    H94      H        0.50487    0.63516    0.80510    1.000
    C137     C        0.55980    0.71340    0.27240    1.000
    H95      H        0.53110    0.67412    0.28636    1.000
    C138     C        0.57850    0.79620    0.22380    1.000
    H96      H        0.56061    0.82748    0.19459    1.000
    C139     C        0.42900    0.58981    0.45841    1.000
    C140     C        0.40320    0.61856    0.51562    1.000
    H97      H        0.47268    0.61790    0.54682    1.000
    C141     C        0.27320    0.64825    0.52583    1.000
    H98      H        0.25601    0.66776    0.56398    1.000
    C142     C        0.16760    0.64920    0.47950    1.000
    C143     C        0.19760    0.62182    0.42198    1.000
    H99      H        0.12982    0.62349    0.39012    1.000
    C144     C        0.32720    0.59214    0.41166    1.000
    H100     H        0.34583    0.57371    0.37310    1.000
    C145     C        0.82970    0.63097    0.66216    1.000
    C146     C        0.83010    0.69297    0.64169    1.000
    H101     H        0.78466    0.72392    0.66496    1.000
    C147     C        0.89850    0.70766    0.58677    1.000
    H102     H        0.89746    0.74858    0.57201    1.000
    C148     C        0.96970    0.66107    0.55308    1.000
    C149     C        0.97400    0.59983    0.57555    1.000
    H103     H        0.02500    0.56930    0.55398    1.000
    C150     C        0.90250    0.58486    0.62969    1.000
    H104     H        0.90311    0.54394    0.64446    1.000
    C151     C        0.93880    0.69642    0.44572    1.000
    C152     C        0.98870    0.73337    0.39660    1.000
    H105     H        0.08343    0.74692    0.39676    1.000
    C153     C        0.90010    0.75020    0.34781    1.000
    H106     H        0.93565    0.77361    0.31458    1.000
    C154     C        0.75750    0.73187    0.34878    1.000
    C155     C        0.70420    0.69836    0.39862    1.000
    H107     H        0.60733    0.68807    0.39992    1.000
    C156     C        0.79360    0.67993    0.44673    1.000
    H108     H        0.75724    0.65654    0.47981    1.000
    C157     C        0.13540    0.45423    0.43940    1.000
    C158     C        0.09950    0.09958    0.23054    1.000
    C159     C        0.28320    0.42472    0.44397    1.000
    C160     C        0.37910    0.42760    0.39470    1.000
    H109     H        0.35201    0.44703    0.35760    1.000
    C161     C        0.51640    0.40175    0.40000    1.000
    H110     H        0.57928    0.40378    0.36628    1.000
    C162     C        0.55970    0.37298    0.45530    1.000
    C163     C        0.46410    0.37210    0.50510    1.000
    H111     H        0.49164    0.35429    0.54291    1.000
    C164     C        0.32800    0.39730    0.49890    1.000
    H112     H        0.26532    0.39575    0.53275    1.000
    C165     C        0.04560    0.14757    0.27639    1.000
    C166     C        0.14100    0.18010    0.31485    1.000
    H113     H        0.23884    0.17248    0.31127    1.000
    C167     C        0.09330    0.22337    0.35805    1.000
    H114     H        0.15941    0.24463    0.38270    1.000
    C168     C        0.94560    0.23578    0.36535    1.000
    C169     C        0.85120    0.20460    0.32530    1.000
    H115     H        0.75346    0.21262    0.32846    1.000
    C170     C        0.89920    0.16200    0.28097    1.000
    H116     H        0.83401    0.14292    0.25416    1.000
    C171     C        0.89410    0.27877    0.41551    1.000
    C172     C        0.97350    0.28770    0.46966    1.000
    H117     H        0.06378    0.26945    0.47299    1.000
    C173     C        0.92110    0.32310    0.51890    1.000
    H118     H        0.97524    0.32802    0.55510    1.000
    C174     C        0.78770    0.35130    0.51400    1.000
    H119     H        0.75333    0.37553    0.54688    1.000
    C175     C        0.70470    0.34374    0.46057    1.000
    C176     C        0.76010    0.30801    0.41195    1.000
    H120     H        0.70614    0.30336    0.37567    1.000
    N31      N        0.76070    0.52104    0.41169    1.000
    N32      N        0.56240    0.55779    0.44979    1.000
    N33      N        0.63790    0.53601    0.50006    1.000
    N34      N        0.64830    0.56445    0.79316    1.000
    N35      N        0.74810    0.61440    0.71647    1.000
    N36      N        0.63850    0.65350    0.73569    1.000
    N37      N        0.50230    0.74290    0.22440    1.000
    N38      N        0.66590    0.74763    0.29847    1.000
    N39      N        0.68080    0.80220    0.26670    1.000
    N40      N        0.03240    0.67629    0.49349    1.000
    O13      O        0.09270    0.46141    0.38248    1.000
    O14      O        0.07030    0.47030    0.48556    1.000
    O15      O        0.00400    0.07459    0.19480    1.000
    O16      O        0.22820    0.08503    0.22962    1.000
