# CIF file generated by openbabel 3.1.0, see https://openbabel.org
data_I
_chemical_name_common 'image0'
_cell_length_a 12.919
_cell_length_b 26.8433
_cell_length_c 13.2924
_cell_angle_alpha 90
_cell_angle_beta 116.759
_cell_angle_gamma 90
_space_group_name_H-M_alt 'P 1'
_space_group_name_Hall 'P 1'
loop_
    _symmetry_equiv_pos_as_xyz
    x,y,z
loop_
    _atom_site_label
    _atom_site_type_symbol
    _atom_site_fract_x
    _atom_site_fract_y
    _atom_site_fract_z
    _atom_site_occupancy
    Sm1      Sm       0.82163    0.00178    0.92328    1.000
    O1       O        0.03440    0.04329    0.10670    1.000
    O2       O        0.85430    0.06162    0.07060    1.000
    O3       O        0.67010    0.04849    0.79430    1.000
    O4       O        0.90130    0.94450    0.07150    1.000
    O5       O        0.91060    0.07127    0.87300    1.000
    O6       O        0.70640    0.93290    0.82000    1.000
    C1       C        0.96010    0.07260    0.11410    1.000
    C2       C        0.61290    0.07800    0.71570    1.000
    C3       C        0.99600    0.12270    0.16670    1.000
    C4       C        0.59400    0.13020    0.74640    1.000
    O7       O        0.56650    0.06671    0.61240    1.000
    C5       C        0.09900    0.14430    0.17670    1.000
    C6       C        0.92580    0.14920    0.20130    1.000
    C7       C        0.51150    0.16070    0.66540    1.000
    C8       C        0.66040    0.14730    0.85570    1.000
    Sm2      Sm       0.44491    0.00642    0.49725    1.000
    H1       H        0.14770    0.12620    0.15610    1.000
    C9       C        0.12920    0.19270    0.21690    1.000
    H2       H        0.85780    0.13500    0.19580    1.000
    C10      C        0.95720    0.19710    0.24430    1.000
    H3       H        0.46790    0.14910    0.59230    1.000
    C11      C        0.49490    0.20830    0.69430    1.000
    H4       H        0.71550    0.12660    0.90910    1.000
    C12      C        0.64460    0.19530    0.88520    1.000
    O8       O        0.30200    0.07430    0.50420    1.000
    O9       O        0.36630    0.02810    0.63450    1.000
    O10      O        0.57520    0.95090    0.64930    1.000
    H5       H        0.19710    0.20700    0.22230    1.000
    C13      C        0.05670    0.21930    0.24890    1.000
    C14      C        0.89390    0.23300    0.28740    1.000
    C15      C        0.56230    0.22560    0.80350    1.000
    C16      C        0.40890    0.24860    0.62110    1.000
    H6       H        0.68830    0.20700    0.95810    1.000
    N1       N        0.29840    0.06380    0.58600    1.000
    C17      C        0.06260    0.27060    0.28700    1.000
    C18      C        0.89880    0.21440    0.39860    1.000
    C19      C        0.76960    0.24200    0.19820    1.000
    C20      C        0.96750    0.27990    0.30760    1.000
    C21      C        0.52910    0.27770    0.81070    1.000
    C22      C        0.28320    0.23060    0.57860    1.000
    C23      C        0.42950    0.26340    0.52120    1.000
    C24      C        0.43850    0.29100    0.70570    1.000
    O11      O        0.25620    0.08680    0.63690    1.000
    C25      C        0.14270    0.30890    0.30170    1.000
    H7       H        0.86820    0.23950    0.42920    1.000
    H8       H        0.97770    0.20740    0.45110    1.000
    H9       H        0.85350    0.18450    0.38500    1.000
    H10      H        0.73550    0.26810    0.22290    1.000
    H11      H        0.72550    0.21200    0.18680    1.000
    H12      H        0.76980    0.25170    0.12870    1.000
    C26      C        0.94960    0.32740    0.33840    1.000
    C27      C        0.57210    0.31080    0.89960    1.000
    H13      H        0.27170    0.21940    0.64150    1.000
    H14      H        0.26850    0.20360    0.52660    1.000
    H15      H        0.23090    0.25750    0.54160    1.000
    H16      H        0.38240    0.29180    0.48430    1.000
    H17      H        0.40950    0.23610    0.46910    1.000
    H18      H        0.50980    0.27170    0.54720    1.000
    C28      C        0.38980    0.33760    0.69180    1.000
    H19      H        0.20640    0.30330    0.28820    1.000
    C29      C        0.12430    0.35520    0.33660    1.000
    H20      H        0.88440    0.33380    0.34890    1.000
    C30      C        0.02780    0.36510    0.35340    1.000
    H21      H        0.63310    0.30190    0.96840    1.000
    C31      C        0.52230    0.35770    0.88380    1.000
    H22      H        0.32970    0.34680    0.62270    1.000
    C32      C        0.43070    0.37070    0.78090    1.000
    H23      H        0.17810    0.38050    0.34910    1.000
    C33      C        0.01100    0.41650    0.38780    1.000
    H24      H        0.55030    0.38070    0.94250    1.000
    C34      C        0.37540    0.42140    0.76790    1.000
    Sm3      Sm       0.17837    0.50178    0.57672    1.000
    O12      O        0.96560    0.54329    0.39330    1.000
    O13      O        0.14570    0.56162    0.42940    1.000
    O14      O        0.32990    0.54849    0.70570    1.000
    O15      O        0.09870    0.44450    0.42850    1.000
    O16      O        0.08940    0.57127    0.62700    1.000
    O17      O        0.29360    0.43290    0.68000    1.000
    C35      C        0.03990    0.57260    0.38590    1.000
    C36      C        0.38710    0.57800    0.78430    1.000
    C37      C        0.00400    0.62270    0.33330    1.000
    C38      C        0.40600    0.63020    0.75360    1.000
    O18      O        0.43350    0.56671    0.88760    1.000
    C39      C        0.90100    0.64430    0.32330    1.000
    C40      C        0.07420    0.64920    0.29870    1.000
    C41      C        0.48850    0.66070    0.83460    1.000
    C42      C        0.33960    0.64730    0.64430    1.000
    Sm4      Sm       0.55509    0.50642    0.00275    1.000
    H25      H        0.85230    0.62620    0.34390    1.000
    C43      C        0.87080    0.69270    0.28310    1.000
    H26      H        0.14220    0.63500    0.30420    1.000
    C44      C        0.04280    0.69710    0.25570    1.000
    H27      H        0.53210    0.64910    0.90770    1.000
    C45      C        0.50510    0.70830    0.80570    1.000
    H28      H        0.28450    0.62660    0.59090    1.000
    C46      C        0.35540    0.69530    0.61480    1.000
    O19      O        0.69800    0.57430    0.99580    1.000
    O20      O        0.63370    0.52810    0.86550    1.000
    O21      O        0.42480    0.45090    0.85070    1.000
    H29      H        0.80290    0.70700    0.27770    1.000
    C47      C        0.94330    0.71930    0.25110    1.000
    C48      C        0.10610    0.73300    0.21260    1.000
    C49      C        0.43770    0.72560    0.69650    1.000
    C50      C        0.59110    0.74860    0.87890    1.000
    H30      H        0.31170    0.70700    0.54190    1.000
    N2       N        0.70160    0.56380    0.91400    1.000
    C51      C        0.93740    0.77060    0.21300    1.000
    C52      C        0.10120    0.71440    0.10140    1.000
    C53      C        0.23040    0.74200    0.30180    1.000
    C54      C        0.03250    0.77990    0.19240    1.000
    C55      C        0.47090    0.77770    0.68930    1.000
    C56      C        0.71680    0.73060    0.92140    1.000
    C57      C        0.57050    0.76340    0.97880    1.000
    C58      C        0.56150    0.79100    0.79430    1.000
    O22      O        0.74380    0.58680    0.86310    1.000
    C59      C        0.85730    0.80890    0.19830    1.000
    H31      H        0.13180    0.73950    0.07080    1.000
    H32      H        0.02230    0.70740    0.04890    1.000
    H33      H        0.14650    0.68450    0.11500    1.000
    H34      H        0.26450    0.76810    0.27710    1.000
    H35      H        0.27450    0.71200    0.31320    1.000
    H36      H        0.23020    0.75170    0.37130    1.000
    C60      C        0.05040    0.82740    0.16160    1.000
    C61      C        0.42790    0.81080    0.60040    1.000
    H37      H        0.72830    0.71940    0.85850    1.000
    H38      H        0.73150    0.70360    0.97340    1.000
    H39      H        0.76910    0.75750    0.95840    1.000
    H40      H        0.61760    0.79180    0.01570    1.000
    H41      H        0.59050    0.73610    0.03090    1.000
    H42      H        0.49020    0.77170    0.95280    1.000
    C62      C        0.61020    0.83760    0.80820    1.000
    H43      H        0.79360    0.80330    0.21180    1.000
    C63      C        0.87570    0.85520    0.16340    1.000
    H44      H        0.11560    0.83380    0.15110    1.000
    C64      C        0.97220    0.86510    0.14660    1.000
    H45      H        0.36690    0.80190    0.53160    1.000
    C65      C        0.47770    0.85770    0.61620    1.000
    H46      H        0.67030    0.84680    0.87730    1.000
    C66      C        0.56930    0.87070    0.71910    1.000
    H47      H        0.82190    0.88050    0.15090    1.000
    C67      C        0.98900    0.91650    0.11220    1.000
    H48      H        0.44970    0.88070    0.55750    1.000
    C68      C        0.62460    0.92140    0.73210    1.000
    Sm5      Sm       0.17837    0.99822    0.07672    1.000
    O23      O        0.96560    0.95671    0.89330    1.000
    O24      O        0.14570    0.93838    0.92940    1.000
    O25      O        0.32990    0.95151    0.20570    1.000
    O26      O        0.09870    0.05550    0.92850    1.000
    O27      O        0.08940    0.92873    0.12700    1.000
    O28      O        0.29360    0.06710    0.18000    1.000
    C69      C        0.03990    0.92740    0.88590    1.000
    C70      C        0.38710    0.92200    0.28430    1.000
    C71      C        0.00400    0.87730    0.83330    1.000
    C72      C        0.40600    0.86980    0.25360    1.000
    O29      O        0.43350    0.93329    0.38760    1.000
    C73      C        0.90100    0.85570    0.82330    1.000
    C74      C        0.07420    0.85080    0.79870    1.000
    C75      C        0.48850    0.83930    0.33460    1.000
    C76      C        0.33960    0.85270    0.14430    1.000
    Sm6      Sm       0.55509    0.99358    0.50275    1.000
    H49      H        0.85230    0.87380    0.84390    1.000
    C77      C        0.87080    0.80730    0.78310    1.000
    H50      H        0.14220    0.86500    0.80420    1.000
    C78      C        0.04280    0.80290    0.75570    1.000
    H51      H        0.53210    0.85090    0.40770    1.000
    C79      C        0.50510    0.79170    0.30570    1.000
    H52      H        0.28450    0.87340    0.09090    1.000
    C80      C        0.35540    0.80470    0.11480    1.000
    O30      O        0.69800    0.92570    0.49580    1.000
    O31      O        0.63370    0.97190    0.36550    1.000
    O32      O        0.42480    0.04910    0.35070    1.000
    H53      H        0.80290    0.79300    0.77770    1.000
    C81      C        0.94330    0.78070    0.75110    1.000
    C82      C        0.10610    0.76700    0.71260    1.000
    C83      C        0.43770    0.77440    0.19650    1.000
    C84      C        0.59110    0.75140    0.37890    1.000
    H54      H        0.31170    0.79300    0.04190    1.000
    N3       N        0.70160    0.93620    0.41400    1.000
    C85      C        0.93740    0.72940    0.71300    1.000
    C86      C        0.10120    0.78560    0.60140    1.000
    C87      C        0.23040    0.75800    0.80180    1.000
    C88      C        0.03250    0.72010    0.69240    1.000
    C89      C        0.47090    0.72230    0.18930    1.000
    C90      C        0.71680    0.76940    0.42140    1.000
    C91      C        0.57050    0.73660    0.47880    1.000
    C92      C        0.56150    0.70900    0.29430    1.000
    O33      O        0.74380    0.91320    0.36310    1.000
    C93      C        0.85730    0.69110    0.69830    1.000
    H55      H        0.13180    0.76050    0.57080    1.000
    H56      H        0.02230    0.79260    0.54890    1.000
    H57      H        0.14650    0.81550    0.61500    1.000
    H58      H        0.26450    0.73190    0.77710    1.000
    H59      H        0.27450    0.78800    0.81320    1.000
    H60      H        0.23020    0.74830    0.87130    1.000
    C94      C        0.05040    0.67260    0.66160    1.000
    C95      C        0.42790    0.68920    0.10040    1.000
    H61      H        0.72830    0.78060    0.35850    1.000
    H62      H        0.73150    0.79640    0.47340    1.000
    H63      H        0.76910    0.74250    0.45840    1.000
    H64      H        0.61760    0.70820    0.51570    1.000
    H65      H        0.59050    0.76390    0.53090    1.000
    H66      H        0.49020    0.72830    0.45280    1.000
    C96      C        0.61020    0.66240    0.30820    1.000
    H67      H        0.79360    0.69670    0.71180    1.000
    C97      C        0.87570    0.64480    0.66340    1.000
    H68      H        0.11560    0.66620    0.65110    1.000
    C98      C        0.97220    0.63490    0.64660    1.000
    H69      H        0.36690    0.69810    0.03160    1.000
    C99      C        0.47770    0.64230    0.11620    1.000
    H70      H        0.67030    0.65320    0.37730    1.000
    C100     C        0.56930    0.62930    0.21910    1.000
    H71      H        0.82190    0.61950    0.65090    1.000
    C101     C        0.98900    0.58350    0.61220    1.000
    H72      H        0.44970    0.61930    0.05750    1.000
    C102     C        0.62460    0.57860    0.23210    1.000
    Sm7      Sm       0.82163    0.49822    0.42328    1.000
    O34      O        0.03440    0.45671    0.60670    1.000
    O35      O        0.85430    0.43838    0.57060    1.000
    O36      O        0.67010    0.45151    0.29430    1.000
    O37      O        0.90130    0.55550    0.57150    1.000
    O38      O        0.91060    0.42873    0.37300    1.000
    O39      O        0.70640    0.56710    0.32000    1.000
    C103     C        0.96010    0.42740    0.61410    1.000
    C104     C        0.61290    0.42200    0.21570    1.000
    C105     C        0.99600    0.37730    0.66670    1.000
    C106     C        0.59400    0.36980    0.24640    1.000
    O40      O        0.56650    0.43329    0.11240    1.000
    C107     C        0.09900    0.35570    0.67670    1.000
    C108     C        0.92580    0.35080    0.70130    1.000
    C109     C        0.51150    0.33930    0.16540    1.000
    C110     C        0.66040    0.35270    0.35570    1.000
    Sm8      Sm       0.44491    0.49358    0.99725    1.000
    H73      H        0.14770    0.37380    0.65610    1.000
    C111     C        0.12920    0.30730    0.71690    1.000
    H74      H        0.85780    0.36500    0.69580    1.000
    C112     C        0.95720    0.30290    0.74430    1.000
    H75      H        0.46790    0.35090    0.09230    1.000
    C113     C        0.49490    0.29170    0.19430    1.000
    H76      H        0.71550    0.37340    0.40910    1.000
    C114     C        0.64460    0.30470    0.38520    1.000
    O41      O        0.30200    0.42570    0.00420    1.000
    O42      O        0.36630    0.47190    0.13450    1.000
    O43      O        0.57520    0.54910    0.14930    1.000
    H77      H        0.19710    0.29300    0.72230    1.000
    C115     C        0.05670    0.28070    0.74890    1.000
    C116     C        0.89390    0.26700    0.78740    1.000
    C117     C        0.56230    0.27440    0.30350    1.000
    C118     C        0.40890    0.25140    0.12110    1.000
    H78      H        0.68830    0.29300    0.45810    1.000
    N4       N        0.29840    0.43620    0.08600    1.000
    C119     C        0.06260    0.22940    0.78700    1.000
    C120     C        0.89880    0.28560    0.89860    1.000
    C121     C        0.76960    0.25800    0.69820    1.000
    C122     C        0.96750    0.22010    0.80760    1.000
    C123     C        0.52910    0.22230    0.31070    1.000
    C124     C        0.28320    0.26940    0.07860    1.000
    C125     C        0.42950    0.23660    0.02120    1.000
    C126     C        0.43850    0.20900    0.20570    1.000
    O44      O        0.25620    0.41320    0.13690    1.000
    C127     C        0.14270    0.19110    0.80170    1.000
    H79      H        0.86820    0.26050    0.92920    1.000
    H80      H        0.97770    0.29260    0.95110    1.000
    H81      H        0.85350    0.31550    0.88500    1.000
    H82      H        0.73550    0.23190    0.72290    1.000
    H83      H        0.72550    0.28800    0.68680    1.000
    H84      H        0.76980    0.24830    0.62870    1.000
    C128     C        0.94960    0.17260    0.83840    1.000
    C129     C        0.57210    0.18920    0.39960    1.000
    H85      H        0.27170    0.28060    0.14150    1.000
    H86      H        0.26850    0.29640    0.02660    1.000
    H87      H        0.23090    0.24250    0.04160    1.000
    H88      H        0.38240    0.20820    0.98430    1.000
    H89      H        0.40950    0.26390    0.96910    1.000
    H90      H        0.50980    0.22830    0.04720    1.000
    C130     C        0.38980    0.16240    0.19180    1.000
    H91      H        0.20640    0.19670    0.78820    1.000
    C131     C        0.12430    0.14480    0.83660    1.000
    H92      H        0.88440    0.16620    0.84890    1.000
    C132     C        0.02780    0.13490    0.85340    1.000
    H93      H        0.63310    0.19810    0.46840    1.000
    C133     C        0.52230    0.14230    0.38380    1.000
    H94      H        0.32970    0.15320    0.12270    1.000
    C134     C        0.43070    0.12930    0.28090    1.000
    H95      H        0.17810    0.11950    0.84910    1.000
    C135     C        0.01100    0.08350    0.88780    1.000
    H96      H        0.55030    0.11930    0.44250    1.000
    C136     C        0.37540    0.07860    0.26790    1.000
