# CIF file generated by openbabel 3.1.0, see https://openbabel.org
data_I
_chemical_name_common 'image0'
_cell_length_a 13.542
_cell_length_b 13.542
_cell_length_c 15.192
_cell_angle_alpha 90
_cell_angle_beta 90
_cell_angle_gamma 120
_space_group_name_H-M_alt 'P 1'
_space_group_name_Hall 'P 1'
loop_
    _symmetry_equiv_pos_as_xyz
    x,y,z
loop_
    _atom_site_label
    _atom_site_type_symbol
    _atom_site_fract_x
    _atom_site_fract_y
    _atom_site_fract_z
    _atom_site_occupancy
    Si1      Si       0.23319    0.99990    0.10023    1.000
    Al1      Al       0.23342    0.00057    0.89956    1.000
    O1       O        0.27390    0.00030    0.99920    1.000
    O2       O        0.33440    0.01510    0.16690    1.000
    O3       O        0.20530    0.10370    0.11330    1.000
    O4       O        0.12000    0.87880    0.12370    1.000
    P1       P        0.33343    0.89996    0.76690    1.000
    Si2      Si       0.89986    0.33323    0.43356    1.000
    Al2      Al       0.90009    0.33390    0.23289    1.000
    O5       O        0.94057    0.33363    0.33253    1.000
    O6       O        0.00107    0.34843    0.50023    1.000
    O7       O        0.87197    0.43703    0.44663    1.000
    O8       O        0.78667    0.21213    0.45703    1.000
    P2       P        0.00010    0.23329    0.10023    1.000
    Si3      Si       0.56652    0.66657    0.76690    1.000
    Al3      Al       0.56675    0.66724    0.56623    1.000
    O9       O        0.60723    0.66697    0.66587    1.000
    O10      O        0.66773    0.68177    0.83357    1.000
    O11      O        0.53863    0.77037    0.77997    1.000
    O12      O        0.45333    0.54547    0.79037    1.000
    P3       P        0.66677    0.56662    0.43356    1.000
    Al4      Al       0.99943    0.23285    0.89956    1.000
    O13      O        0.99970    0.27360    0.99920    1.000
    O14      O        0.98490    0.31930    0.16690    1.000
    O15      O        0.89630    0.10160    0.11330    1.000
    O16      O        0.12120    0.24120    0.12370    1.000
    P4       P        0.10004    0.43348    0.76690    1.000
    Al5      Al       0.66610    0.56618    0.23289    1.000
    O17      O        0.66637    0.60693    0.33253    1.000
    O18      O        0.65157    0.65263    0.50023    1.000
    O19      O        0.56297    0.43493    0.44663    1.000
    O20      O        0.78787    0.57453    0.45703    1.000
    P5       P        0.76671    0.76681    0.10023    1.000
    Al6      Al       0.33276    0.89952    0.56623    1.000
    O21      O        0.33303    0.94027    0.66587    1.000
    O22      O        0.31823    0.98597    0.83357    1.000
    O23      O        0.22963    0.76827    0.77997    1.000
    O24      O        0.45453    0.90787    0.79037    1.000
    P6       P        0.43338    0.10014    0.43356    1.000
    Al7      Al       0.76715    0.76658    0.89956    1.000
    O25      O        0.72640    0.72610    0.99920    1.000
    O26      O        0.68070    0.66560    0.16690    1.000
    O27      O        0.89840    0.79470    0.11330    1.000
    O28      O        0.75880    0.88000    0.12370    1.000
    Al8      Al       0.43382    0.09991    0.23289    1.000
    O29      O        0.39307    0.05943    0.33253    1.000
    O30      O        0.34737    0.99893    0.50023    1.000
    O31      O        0.56507    0.12803    0.44663    1.000
    O32      O        0.42547    0.21333    0.45703    1.000
    Al9      Al       0.10048    0.43325    0.56623    1.000
    O33      O        0.05973    0.39277    0.66587    1.000
    O34      O        0.01403    0.33227    0.83357    1.000
    O35      O        0.23173    0.46137    0.77997    1.000
    O36      O        0.09213    0.54667    0.79037    1.000
    Si4      Si       0.76681    0.00010    0.89977    1.000
    Al10     Al       0.76658    0.99943    0.10044    1.000
    O37      O        0.72610    0.99970    0.00080    1.000
    O38      O        0.66560    0.98490    0.83310    1.000
    O39      O        0.79470    0.89630    0.88670    1.000
    O40      O        0.88000    0.12120    0.87630    1.000
    P7       P        0.66657    0.10004    0.23310    1.000
    Si5      Si       0.43348    0.33343    0.23310    1.000
    Al11     Al       0.43325    0.33276    0.43377    1.000
    O41      O        0.39277    0.33303    0.33413    1.000
    O42      O        0.33227    0.31823    0.16643    1.000
    O43      O        0.46137    0.22963    0.22003    1.000
    O44      O        0.54667    0.45453    0.20963    1.000
    P8       P        0.33323    0.43338    0.56644    1.000
    Si6      Si       0.10014    0.66677    0.56644    1.000
    Al12     Al       0.09991    0.66610    0.76711    1.000
    O45      O        0.05943    0.66637    0.66747    1.000
    O46      O        0.99893    0.65157    0.49977    1.000
    O47      O        0.12803    0.56297    0.55337    1.000
    O48      O        0.21333    0.78787    0.54297    1.000
    P9       P        0.99990    0.76671    0.89977    1.000
    Al13     Al       0.00057    0.76715    0.10044    1.000
    O49      O        0.00030    0.72640    0.00080    1.000
    O50      O        0.01510    0.68070    0.83310    1.000
    O51      O        0.10370    0.89840    0.88670    1.000
    O52      O        0.87880    0.75880    0.87630    1.000
    P10      P        0.89996    0.56652    0.23310    1.000
    Al14     Al       0.66724    0.10048    0.43377    1.000
    O53      O        0.66697    0.05973    0.33413    1.000
    O54      O        0.68177    0.01403    0.16643    1.000
    O55      O        0.77037    0.23173    0.22003    1.000
    O56      O        0.54547    0.09213    0.20963    1.000
    P11      P        0.56662    0.89986    0.56644    1.000
    Al15     Al       0.33390    0.43382    0.76711    1.000
    O57      O        0.33363    0.39307    0.66747    1.000
    O58      O        0.34843    0.34737    0.49977    1.000
    O59      O        0.43703    0.56507    0.55337    1.000
    O60      O        0.21213    0.42547    0.54297    1.000
    P12      P        0.23329    0.23319    0.89977    1.000
    Al16     Al       0.23285    0.23342    0.10044    1.000
    O61      O        0.27360    0.27390    0.00080    1.000
    O62      O        0.31930    0.33440    0.83310    1.000
    O63      O        0.10160    0.20530    0.88670    1.000
    O64      O        0.24120    0.12000    0.87630    1.000
    Al17     Al       0.89952    0.56675    0.43377    1.000
    O65      O        0.94027    0.60723    0.33413    1.000
    O66      O        0.98597    0.66773    0.16643    1.000
    O67      O        0.76827    0.53863    0.22003    1.000
    O68      O        0.90787    0.45333    0.20963    1.000
    Al18     Al       0.56618    0.90009    0.76711    1.000
    O69      O        0.60693    0.94057    0.66747    1.000
    O70      O        0.65263    0.00107    0.49977    1.000
    O71      O        0.43493    0.87197    0.55337    1.000
    O72      O        0.57453    0.78667    0.54297    1.000
