# CIF file generated by openbabel 3.1.0, see https://openbabel.org
data_I
_chemical_name_common 'image0'
_cell_length_a 9.612
_cell_length_b 22.868
_cell_length_c 10.159
_cell_angle_alpha 90
_cell_angle_beta 101.07
_cell_angle_gamma 90
_space_group_name_H-M_alt 'P 1'
_space_group_name_Hall 'P 1'
loop_
    _symmetry_equiv_pos_as_xyz
    x,y,z
loop_
    _atom_site_label
    _atom_site_type_symbol
    _atom_site_fract_x
    _atom_site_fract_y
    _atom_site_fract_z
    _atom_site_occupancy
    Pr1      Pr       0.25589    0.27799    0.03749    1.000
    Pr2      Pr       0.72041    0.43549    0.85034    1.000
    N1       N        0.59720    0.41592    0.61390    1.000
    N2       N        0.53360    0.41630    0.39420    1.000
    H1       H        0.52871    0.42633    0.30980    1.000
    N3       N        0.77130    0.50727    0.63590    1.000
    O1       O        0.06880    0.34065    0.09880    1.000
    O2       O        0.03910    0.29129    0.85520    1.000
    O3       O        0.85030    0.37878    0.04270    1.000
    O4       O        0.83900    0.34303    0.78620    1.000
    O5       O        0.59640    0.43569    0.04410    1.000
    O6       O        0.47110    0.48968    0.16420    1.000
    O7       O        0.37940    0.29746    0.68090    1.000
    O8       O        0.52210    0.36037    0.80910    1.000
    O9       O        0.28320    0.29676    0.37990    1.000
    O10      O        0.37560    0.34096    0.22050    1.000
    O11      O        0.17810    0.48027    0.00620    1.000
    O12      O        0.98040    0.45148    0.86480    1.000
    C1       C        0.45730    0.37187    0.44020    1.000
    C2       C        0.49820    0.37277    0.57850    1.000
    C3       C        0.61700    0.44153    0.50140    1.000
    C4       C        0.71940    0.49003    0.50770    1.000
    C5       C        0.75950    0.51474    0.39640    1.000
    H2       H        0.72272    0.50057    0.30869    1.000
    C6       C        0.85620    0.56138    0.41680    1.000
    H3       H        0.88592    0.57964    0.34290    1.000
    C7       C        0.90770    0.58040    0.54700    1.000
    H4       H        0.97232    0.61219    0.56334    1.000
    C8       C        0.86320    0.55219    0.65310    1.000
    H5       H        0.89949    0.56530    0.74181    1.000
    C9       C        0.52030    0.47822    0.05950    1.000
    C10      C        0.04490    0.48019    0.96170    1.000
    C11      C        0.46180    0.34007    0.69460    1.000
    C12      C        0.36460    0.33369    0.34040    1.000
    C13      C        0.95510    0.35014    0.01880    1.000
    C14      C        0.94190    0.32556    0.87320    1.000
    Pr3      Pr       0.74411    0.77799    0.46251    1.000
    Pr4      Pr       0.27959    0.93549    0.64966    1.000
    N4       N        0.40280    0.91592    0.88610    1.000
    N5       N        0.46640    0.91630    0.10580    1.000
    H6       H        0.47129    0.92633    0.19020    1.000
    N6       N        0.22870    0.00727    0.86410    1.000
    O13      O        0.93120    0.84065    0.40120    1.000
    O14      O        0.96090    0.79129    0.64480    1.000
    O15      O        0.14970    0.87878    0.45730    1.000
    O16      O        0.16100    0.84303    0.71380    1.000
    O17      O        0.40360    0.93569    0.45590    1.000
    O18      O        0.52890    0.98968    0.33580    1.000
    O19      O        0.62060    0.79746    0.81910    1.000
    O20      O        0.47790    0.86037    0.69090    1.000
    O21      O        0.71680    0.79676    0.12010    1.000
    O22      O        0.62440    0.84096    0.27950    1.000
    O23      O        0.82190    0.98027    0.49380    1.000
    O24      O        0.01960    0.95148    0.63520    1.000
    C15      C        0.54270    0.87187    0.05980    1.000
    C16      C        0.50180    0.87277    0.92150    1.000
    C17      C        0.38300    0.94153    0.99860    1.000
    C18      C        0.28060    0.99003    0.99230    1.000
    C19      C        0.24050    0.01474    0.10360    1.000
    H7       H        0.27728    0.00057    0.19131    1.000
    C20      C        0.14380    0.06138    0.08320    1.000
    H8       H        0.11408    0.07964    0.15710    1.000
    C21      C        0.09230    0.08040    0.95300    1.000
    H9       H        0.02768    0.11219    0.93666    1.000
    C22      C        0.13680    0.05219    0.84690    1.000
    H10      H        0.10051    0.06530    0.75819    1.000
    C23      C        0.47970    0.97822    0.44050    1.000
    C24      C        0.95510    0.98019    0.53830    1.000
    C25      C        0.53820    0.84007    0.80540    1.000
    C26      C        0.63540    0.83369    0.15960    1.000
    C27      C        0.04490    0.85014    0.48120    1.000
    C28      C        0.05810    0.82556    0.62680    1.000
    Pr5      Pr       0.74411    0.72201    0.96251    1.000
    Pr6      Pr       0.27959    0.56451    0.14966    1.000
    N7       N        0.40280    0.58408    0.38610    1.000
    N8       N        0.46640    0.58370    0.60580    1.000
    H11      H        0.47129    0.57367    0.69020    1.000
    N9       N        0.22870    0.49273    0.36410    1.000
    O25      O        0.93120    0.65935    0.90120    1.000
    O26      O        0.96090    0.70871    0.14480    1.000
    O27      O        0.14970    0.62122    0.95730    1.000
    O28      O        0.16100    0.65697    0.21380    1.000
    O29      O        0.40360    0.56431    0.95590    1.000
    O30      O        0.52890    0.51032    0.83580    1.000
    O31      O        0.62060    0.70254    0.31910    1.000
    O32      O        0.47790    0.63963    0.19090    1.000
    O33      O        0.71680    0.70324    0.62010    1.000
    O34      O        0.62440    0.65904    0.77950    1.000
    O35      O        0.82190    0.51973    0.99380    1.000
    O36      O        0.01960    0.54852    0.13520    1.000
    C29      C        0.54270    0.62813    0.55980    1.000
    C30      C        0.50180    0.62723    0.42150    1.000
    C31      C        0.38300    0.55847    0.49860    1.000
    C32      C        0.28060    0.50997    0.49230    1.000
    C33      C        0.24050    0.48526    0.60360    1.000
    H12      H        0.27728    0.49943    0.69131    1.000
    C34      C        0.14380    0.43862    0.58320    1.000
    H13      H        0.11408    0.42036    0.65710    1.000
    C35      C        0.09230    0.41960    0.45300    1.000
    H14      H        0.02768    0.38781    0.43666    1.000
    C36      C        0.13680    0.44781    0.34690    1.000
    H15      H        0.10051    0.43470    0.25819    1.000
    C37      C        0.47970    0.52178    0.94050    1.000
    C38      C        0.95510    0.51981    0.03830    1.000
    C39      C        0.53820    0.65993    0.30540    1.000
    C40      C        0.63540    0.66631    0.65960    1.000
    C41      C        0.04490    0.64986    0.98120    1.000
    C42      C        0.05810    0.67444    0.12680    1.000
    Pr7      Pr       0.25589    0.22201    0.53749    1.000
    Pr8      Pr       0.72041    0.06451    0.35034    1.000
    N10      N        0.59720    0.08408    0.11390    1.000
    N11      N        0.53360    0.08370    0.89420    1.000
    H16      H        0.52871    0.07367    0.80980    1.000
    N12      N        0.77130    0.99273    0.13590    1.000
    O37      O        0.06880    0.15935    0.59880    1.000
    O38      O        0.03910    0.20871    0.35520    1.000
    O39      O        0.85030    0.12122    0.54270    1.000
    O40      O        0.83900    0.15697    0.28620    1.000
    O41      O        0.59640    0.06431    0.54410    1.000
    O42      O        0.47110    0.01032    0.66420    1.000
    O43      O        0.37940    0.20254    0.18090    1.000
    O44      O        0.52210    0.13963    0.30910    1.000
    O45      O        0.28320    0.20324    0.87990    1.000
    O46      O        0.37560    0.15904    0.72050    1.000
    O47      O        0.17810    0.01973    0.50620    1.000
    O48      O        0.98040    0.04852    0.36480    1.000
    C43      C        0.45730    0.12813    0.94020    1.000
    C44      C        0.49820    0.12723    0.07850    1.000
    C45      C        0.61700    0.05847    0.00140    1.000
    C46      C        0.71940    0.00997    0.00770    1.000
    C47      C        0.75950    0.98526    0.89640    1.000
    H17      H        0.72272    0.99943    0.80869    1.000
    C48      C        0.85620    0.93862    0.91680    1.000
    H18      H        0.88592    0.92036    0.84290    1.000
    C49      C        0.90770    0.91960    0.04700    1.000
    H19      H        0.97232    0.88781    0.06334    1.000
    C50      C        0.86320    0.94781    0.15310    1.000
    H20      H        0.89949    0.93470    0.24181    1.000
    C51      C        0.52030    0.02178    0.55950    1.000
    C52      C        0.04490    0.01981    0.46170    1.000
    C53      C        0.46180    0.15993    0.19460    1.000
    C54      C        0.36460    0.16631    0.84040    1.000
    C55      C        0.95510    0.14986    0.51880    1.000
    C56      C        0.94190    0.17444    0.37320    1.000
