# CIF file generated by openbabel 3.1.0, see https://openbabel.org
data_I
_chemical_name_common 'image0'
_cell_length_a 9.5095
_cell_length_b 19.84
_cell_length_c 21.035
_cell_angle_alpha 90
_cell_angle_beta 90
_cell_angle_gamma 90
_space_group_name_H-M_alt 'P 1'
_space_group_name_Hall 'P 1'
loop_
    _symmetry_equiv_pos_as_xyz
    x,y,z
loop_
    _atom_site_label
    _atom_site_type_symbol
    _atom_site_fract_x
    _atom_site_fract_y
    _atom_site_fract_z
    _atom_site_occupancy
    Cd1      Cd       0.50754    0.55346    0.42614    1.000
    N1       N        0.48300    0.53803    0.31789    1.000
    N2       N        0.44310    0.55940    0.21755    1.000
    N3       N        0.56000    0.56616    0.11603    1.000
    N4       N        0.76800    0.55277    0.07328    1.000
    O1       O        0.97110    0.18115    0.39812    1.000
    O2       O        0.80600    0.11891    0.44272    1.000
    O3       O        0.72150    0.45827    0.40205    1.000
    O4       O        0.52100    0.44353    0.45464    1.000
    S1       S        0.81767    0.31384    0.41213    1.000
    C1       C        0.65820    0.34819    0.43311    1.000
    C2       C        0.56670    0.30010    0.45273    1.000
    H1       H        0.47530    0.30920    0.46580    1.000
    C3       C        0.62490    0.23470    0.45120    1.000
    H2       H        0.57610    0.19620    0.46340    1.000
    C4       C        0.75880    0.23396    0.43012    1.000
    C5       C        0.85380    0.17445    0.42251    1.000
    C6       C        0.63540    0.42222    0.42909    1.000
    C7       C        0.40390    0.48720    0.29210    1.000
    H3       H        0.37240    0.44950    0.31410    1.000
    C8       C        0.37840    0.49980    0.23050    1.000
    H4       H        0.32700    0.47320    0.20240    1.000
    C9       C        0.50450    0.58050    0.27107    1.000
    H5       H        0.55590    0.62020    0.27470    1.000
    C10      C        0.44760    0.59300    0.15604    1.000
    H6       H        0.46240    0.64090    0.16240    1.000
    H7       H        0.35810    0.58710    0.13460    1.000
    C11      C        0.55360    0.50830    0.08093    1.000
    H8       H        0.47660    0.47990    0.07610    1.000
    C12      C        0.68170    0.50090    0.05495    1.000
    H9       H        0.70810    0.46570    0.02830    1.000
    C13      C        0.68940    0.59130    0.11022    1.000
    H10      H        0.72020    0.63070    0.12960    1.000
    Cd2      Cd       0.49246    0.05346    0.07386    1.000
    N5       N        0.51700    0.03803    0.18211    1.000
    N6       N        0.55690    0.05940    0.28245    1.000
    N7       N        0.44000    0.06616    0.38397    1.000
    N8       N        0.23200    0.05277    0.42672    1.000
    O5       O        0.02890    0.68115    0.10188    1.000
    O6       O        0.19400    0.61891    0.05728    1.000
    O7       O        0.27850    0.95827    0.09795    1.000
    O8       O        0.47900    0.94353    0.04536    1.000
    S2       S        0.18233    0.81384    0.08787    1.000
    C14      C        0.34180    0.84819    0.06689    1.000
    C15      C        0.43330    0.80010    0.04727    1.000
    H11      H        0.52470    0.80920    0.03420    1.000
    C16      C        0.37510    0.73470    0.04880    1.000
    H12      H        0.42390    0.69620    0.03660    1.000
    C17      C        0.24120    0.73396    0.06988    1.000
    C18      C        0.14620    0.67445    0.07749    1.000
    C19      C        0.36460    0.92222    0.07091    1.000
    C20      C        0.59610    0.98720    0.20790    1.000
    H13      H        0.62760    0.94950    0.18590    1.000
    C21      C        0.62160    0.99980    0.26950    1.000
    H14      H        0.67300    0.97320    0.29760    1.000
    C22      C        0.49550    0.08050    0.22893    1.000
    H15      H        0.44410    0.12020    0.22530    1.000
    C23      C        0.55240    0.09300    0.34396    1.000
    H16      H        0.53760    0.14090    0.33760    1.000
    H17      H        0.64190    0.08710    0.36540    1.000
    C24      C        0.44640    0.00830    0.41907    1.000
    H18      H        0.52340    0.97990    0.42390    1.000
    C25      C        0.31830    0.00090    0.44505    1.000
    H19      H        0.29190    0.96570    0.47170    1.000
    C26      C        0.31060    0.09130    0.38978    1.000
    H20      H        0.27980    0.13070    0.37040    1.000
    Cd3      Cd       0.00754    0.55346    0.07386    1.000
    N9       N        0.98300    0.53803    0.18211    1.000
    N10      N        0.94310    0.55940    0.28245    1.000
    N11      N        0.06000    0.56616    0.38397    1.000
    N12      N        0.26800    0.55277    0.42672    1.000
    O9       O        0.47110    0.18115    0.10188    1.000
    O10      O        0.30600    0.11891    0.05728    1.000
    O11      O        0.22150    0.45827    0.09795    1.000
    O12      O        0.02100    0.44353    0.04536    1.000
    S3       S        0.31767    0.31384    0.08787    1.000
    C27      C        0.15820    0.34819    0.06689    1.000
    C28      C        0.06670    0.30010    0.04727    1.000
    H21      H        0.97530    0.30920    0.03420    1.000
    C29      C        0.12490    0.23470    0.04880    1.000
    H22      H        0.07610    0.19620    0.03660    1.000
    C30      C        0.25880    0.23396    0.06988    1.000
    C31      C        0.35380    0.17445    0.07749    1.000
    C32      C        0.13540    0.42222    0.07091    1.000
    C33      C        0.90390    0.48720    0.20790    1.000
    H23      H        0.87240    0.44950    0.18590    1.000
    C34      C        0.87840    0.49980    0.26950    1.000
    H24      H        0.82700    0.47320    0.29760    1.000
    C35      C        0.00450    0.58050    0.22893    1.000
    H25      H        0.05590    0.62020    0.22530    1.000
    C36      C        0.94760    0.59300    0.34396    1.000
    H26      H        0.96240    0.64090    0.33760    1.000
    H27      H        0.85810    0.58710    0.36540    1.000
    C37      C        0.05360    0.50830    0.41907    1.000
    H28      H        0.97660    0.47990    0.42390    1.000
    C38      C        0.18170    0.50090    0.44505    1.000
    H29      H        0.20810    0.46570    0.47170    1.000
    C39      C        0.18940    0.59130    0.38978    1.000
    H30      H        0.22020    0.63070    0.37040    1.000
    Cd4      Cd       0.99246    0.05346    0.42614    1.000
    N13      N        0.01700    0.03803    0.31789    1.000
    N14      N        0.05690    0.05940    0.21755    1.000
    N15      N        0.94000    0.06616    0.11603    1.000
    N16      N        0.73200    0.05277    0.07328    1.000
    O13      O        0.52890    0.68115    0.39812    1.000
    O14      O        0.69400    0.61891    0.44272    1.000
    O15      O        0.77850    0.95827    0.40205    1.000
    O16      O        0.97900    0.94353    0.45464    1.000
    S4       S        0.68233    0.81384    0.41213    1.000
    C40      C        0.84180    0.84819    0.43311    1.000
    C41      C        0.93330    0.80010    0.45273    1.000
    H31      H        0.02470    0.80920    0.46580    1.000
    C42      C        0.87510    0.73470    0.45120    1.000
    H32      H        0.92390    0.69620    0.46340    1.000
    C43      C        0.74120    0.73396    0.43012    1.000
    C44      C        0.64620    0.67445    0.42251    1.000
    C45      C        0.86460    0.92222    0.42909    1.000
    C46      C        0.09610    0.98720    0.29210    1.000
    H33      H        0.12760    0.94950    0.31410    1.000
    C47      C        0.12160    0.99980    0.23050    1.000
    H34      H        0.17300    0.97320    0.20240    1.000
    C48      C        0.99550    0.08050    0.27107    1.000
    H35      H        0.94410    0.12020    0.27470    1.000
    C49      C        0.05240    0.09300    0.15604    1.000
    H36      H        0.03760    0.14090    0.16240    1.000
    H37      H        0.14190    0.08710    0.13460    1.000
    C50      C        0.94640    0.00830    0.08093    1.000
    H38      H        0.02340    0.97990    0.07610    1.000
    C51      C        0.81830    0.00090    0.05495    1.000
    H39      H        0.79190    0.96570    0.02830    1.000
    C52      C        0.81060    0.09130    0.11022    1.000
    H40      H        0.77980    0.13070    0.12960    1.000
    Cd5      Cd       0.99246    0.44654    0.92614    1.000
    N17      N        0.01700    0.46197    0.81789    1.000
    N18      N        0.05690    0.44060    0.71755    1.000
    N19      N        0.94000    0.43384    0.61603    1.000
    N20      N        0.73200    0.44723    0.57328    1.000
    O17      O        0.52890    0.81885    0.89812    1.000
    O18      O        0.69400    0.88109    0.94272    1.000
    O19      O        0.77850    0.54173    0.90205    1.000
    O20      O        0.97900    0.55647    0.95464    1.000
    S5       S        0.68233    0.68616    0.91213    1.000
    C53      C        0.84180    0.65181    0.93311    1.000
    C54      C        0.93330    0.69990    0.95273    1.000
    H41      H        0.02470    0.69080    0.96580    1.000
    C55      C        0.87510    0.76530    0.95120    1.000
    H42      H        0.92390    0.80380    0.96340    1.000
    C56      C        0.74120    0.76604    0.93012    1.000
    C57      C        0.64620    0.82555    0.92251    1.000
    C58      C        0.86460    0.57778    0.92909    1.000
    C59      C        0.09610    0.51280    0.79210    1.000
    H43      H        0.12760    0.55050    0.81410    1.000
    C60      C        0.12160    0.50020    0.73050    1.000
    H44      H        0.17300    0.52680    0.70240    1.000
    C61      C        0.99550    0.41950    0.77107    1.000
    H45      H        0.94410    0.37980    0.77470    1.000
    C62      C        0.05240    0.40700    0.65604    1.000
    H46      H        0.03760    0.35910    0.66240    1.000
    H47      H        0.14190    0.41290    0.63460    1.000
    C63      C        0.94640    0.49170    0.58093    1.000
    H48      H        0.02340    0.52010    0.57610    1.000
    C64      C        0.81830    0.49910    0.55495    1.000
    H49      H        0.79190    0.53430    0.52830    1.000
    C65      C        0.81060    0.40870    0.61022    1.000
    H50      H        0.77980    0.36930    0.62960    1.000
    Cd6      Cd       0.00754    0.94654    0.57386    1.000
    N21      N        0.98300    0.96197    0.68211    1.000
    N22      N        0.94310    0.94060    0.78245    1.000
    N23      N        0.06000    0.93384    0.88397    1.000
    N24      N        0.26800    0.94723    0.92672    1.000
    O21      O        0.47110    0.31885    0.60188    1.000
    O22      O        0.30600    0.38109    0.55728    1.000
    O23      O        0.22150    0.04173    0.59795    1.000
    O24      O        0.02100    0.05647    0.54536    1.000
    S6       S        0.31767    0.18616    0.58787    1.000
    C66      C        0.15820    0.15181    0.56689    1.000
    C67      C        0.06670    0.19990    0.54727    1.000
    H51      H        0.97530    0.19080    0.53420    1.000
    C68      C        0.12490    0.26530    0.54880    1.000
    H52      H        0.07610    0.30380    0.53660    1.000
    C69      C        0.25880    0.26604    0.56988    1.000
    C70      C        0.35380    0.32555    0.57749    1.000
    C71      C        0.13540    0.07778    0.57091    1.000
    C72      C        0.90390    0.01280    0.70790    1.000
    H53      H        0.87240    0.05050    0.68590    1.000
    C73      C        0.87840    0.00020    0.76950    1.000
    H54      H        0.82700    0.02680    0.79760    1.000
    C74      C        0.00450    0.91950    0.72893    1.000
    H55      H        0.05590    0.87980    0.72530    1.000
    C75      C        0.94760    0.90700    0.84396    1.000
    H56      H        0.96240    0.85910    0.83760    1.000
    H57      H        0.85810    0.91290    0.86540    1.000
    C76      C        0.05360    0.99170    0.91907    1.000
    H58      H        0.97660    0.02010    0.92390    1.000
    C77      C        0.18170    0.99910    0.94505    1.000
    H59      H        0.20810    0.03430    0.97170    1.000
    C78      C        0.18940    0.90870    0.88978    1.000
    H60      H        0.22020    0.86930    0.87040    1.000
    Cd7      Cd       0.49246    0.44654    0.57386    1.000
    N25      N        0.51700    0.46197    0.68211    1.000
    N26      N        0.55690    0.44060    0.78245    1.000
    N27      N        0.44000    0.43384    0.88397    1.000
    N28      N        0.23200    0.44723    0.92672    1.000
    O25      O        0.02890    0.81885    0.60188    1.000
    O26      O        0.19400    0.88109    0.55728    1.000
    O27      O        0.27850    0.54173    0.59795    1.000
    O28      O        0.47900    0.55647    0.54536    1.000
    S7       S        0.18233    0.68616    0.58787    1.000
    C79      C        0.34180    0.65181    0.56689    1.000
    C80      C        0.43330    0.69990    0.54727    1.000
    H61      H        0.52470    0.69080    0.53420    1.000
    C81      C        0.37510    0.76530    0.54880    1.000
    H62      H        0.42390    0.80380    0.53660    1.000
    C82      C        0.24120    0.76604    0.56988    1.000
    C83      C        0.14620    0.82555    0.57749    1.000
    C84      C        0.36460    0.57778    0.57091    1.000
    C85      C        0.59610    0.51280    0.70790    1.000
    H63      H        0.62760    0.55050    0.68590    1.000
    C86      C        0.62160    0.50020    0.76950    1.000
    H64      H        0.67300    0.52680    0.79760    1.000
    C87      C        0.49550    0.41950    0.72893    1.000
    H65      H        0.44410    0.37980    0.72530    1.000
    C88      C        0.55240    0.40700    0.84396    1.000
    H66      H        0.53760    0.35910    0.83760    1.000
    H67      H        0.64190    0.41290    0.86540    1.000
    C89      C        0.44640    0.49170    0.91907    1.000
    H68      H        0.52340    0.52010    0.92390    1.000
    C90      C        0.31830    0.49910    0.94505    1.000
    H69      H        0.29190    0.53430    0.97170    1.000
    C91      C        0.31060    0.40870    0.88978    1.000
    H70      H        0.27980    0.36930    0.87040    1.000
    Cd8      Cd       0.50754    0.94654    0.92614    1.000
    N29      N        0.48300    0.96197    0.81789    1.000
    N30      N        0.44310    0.94060    0.71755    1.000
    N31      N        0.56000    0.93384    0.61603    1.000
    N32      N        0.76800    0.94723    0.57328    1.000
    O29      O        0.97110    0.31885    0.89812    1.000
    O30      O        0.80600    0.38109    0.94272    1.000
    O31      O        0.72150    0.04173    0.90205    1.000
    O32      O        0.52100    0.05647    0.95464    1.000
    S8       S        0.81767    0.18616    0.91213    1.000
    C92      C        0.65820    0.15181    0.93311    1.000
    C93      C        0.56670    0.19990    0.95273    1.000
    H71      H        0.47530    0.19080    0.96580    1.000
    C94      C        0.62490    0.26530    0.95120    1.000
    H72      H        0.57610    0.30380    0.96340    1.000
    C95      C        0.75880    0.26604    0.93012    1.000
    C96      C        0.85380    0.32555    0.92251    1.000
    C97      C        0.63540    0.07778    0.92909    1.000
    C98      C        0.40390    0.01280    0.79210    1.000
    H73      H        0.37240    0.05050    0.81410    1.000
    C99      C        0.37840    0.00020    0.73050    1.000
    H74      H        0.32700    0.02680    0.70240    1.000
    C100     C        0.50450    0.91950    0.77107    1.000
    H75      H        0.55590    0.87980    0.77470    1.000
    C101     C        0.44760    0.90700    0.65604    1.000
    H76      H        0.46240    0.85910    0.66240    1.000
    H77      H        0.35810    0.91290    0.63460    1.000
    C102     C        0.55360    0.99170    0.58093    1.000
    H78      H        0.47660    0.02010    0.57610    1.000
    C103     C        0.68170    0.99910    0.55495    1.000
    H79      H        0.70810    0.03430    0.52830    1.000
    C104     C        0.68940    0.90870    0.61022    1.000
    H80      H        0.72020    0.86930    0.62960    1.000
