# CIF file generated by openbabel 3.1.0, see https://openbabel.org
data_I
_chemical_name_common 'GEPDEM_clean'
_cell_length_a 9.5731
_cell_length_b 9.5731
_cell_length_c 16.3828
_cell_angle_alpha 87.258
_cell_angle_beta 74.7977
_cell_angle_gamma 117.994
_space_group_name_H-M_alt 'P 1'
_space_group_name_Hall 'P 1'
loop_
    _symmetry_equiv_pos_as_xyz
    x,y,z
loop_
    _atom_site_label
    _atom_site_type_symbol
    _atom_site_fract_x
    _atom_site_fract_y
    _atom_site_fract_z
    _atom_site_occupancy
    Zn1      Zn       0.32775    0.44011    0.67790    1.000
    Zn2      Zn       0.61801    0.00565    0.82210    1.000
    Zn3      Zn       0.67225    0.55989    0.32210    1.000
    Zn4      Zn       0.38199    0.99435    0.17790    1.000
    H1       H        0.87870    0.79510    0.78460    1.000
    H2       H        0.01930    0.85920    0.69450    1.000
    H3       H        0.68200    0.46120    0.57180    1.000
    H4       H        0.58960    0.65920    0.76440    1.000
    H5       H        0.93170    0.25810    0.95480    1.000
    H6       H        0.07970    0.66330    0.71540    1.000
    H7       H        0.05370    0.71380    0.80550    1.000
    H8       H        0.53300    0.25380    0.92820    1.000
    H9       H        0.92360    0.35400    0.73560    1.000
    H10      H        0.71290    0.88650    0.54520    1.000
    H11      H        0.12130    0.20490    0.21540    1.000
    H12      H        0.98070    0.14080    0.30550    1.000
    H13      H        0.31800    0.53880    0.42820    1.000
    H14      H        0.41040    0.34080    0.23560    1.000
    H15      H        0.06830    0.74190    0.04520    1.000
    H16      H        0.92030    0.33670    0.28460    1.000
    H17      H        0.94630    0.28620    0.19450    1.000
    H18      H        0.46700    0.74620    0.07180    1.000
    H19      H        0.07640    0.64600    0.26440    1.000
    H20      H        0.28710    0.11350    0.45480    1.000
    C1       C        0.92900    0.76240    0.73540    1.000
    C2       C        0.69680    0.52160    0.61480    1.000
    C3       C        0.64290    0.62770    0.71940    1.000
    C4       C        0.11310    0.48990    0.92920    1.000
    C5       C        0.15590    0.63700    0.95610    1.000
    C6       C        0.95950    0.35570    0.97280    1.000
    C7       C        0.22360    0.46300    0.85400    1.000
    C8       C        0.32160    0.78580    0.91380    1.000
    C9       C        0.99780    0.66440    0.76460    1.000
    C10      C        0.63640    0.31160    0.88520    1.000
    C11      C        0.84710    0.36230    0.78060    1.000
    C12      C        0.91910    0.04230    0.57080    1.000
    C13      C        0.09310    0.11200    0.54390    1.000
    C14      C        0.82850    0.93230    0.52720    1.000
    C15      C        0.81700    0.07760    0.64600    1.000
    C16      C        0.19960    0.23540    0.58620    1.000
    C17      C        0.07100    0.23760    0.26460    1.000
    C18      C        0.30320    0.47840    0.38520    1.000
    C19      C        0.35710    0.37230    0.28060    1.000
    C20      C        0.88690    0.51010    0.07080    1.000
    C21      C        0.84410    0.36300    0.04390    1.000
    C22      C        0.04050    0.64430    0.02720    1.000
    C23      C        0.77640    0.53700    0.14600    1.000
    C24      C        0.67840    0.21420    0.08620    1.000
    C25      C        0.00220    0.33560    0.23540    1.000
    C26      C        0.36360    0.68840    0.11480    1.000
    C27      C        0.15290    0.63770    0.21940    1.000
    C28      C        0.08090    0.95770    0.42920    1.000
    C29      C        0.90690    0.88800    0.45610    1.000
    C30      C        0.17150    0.06770    0.47280    1.000
    C31      C        0.18300    0.92240    0.35400    1.000
    C32      C        0.80040    0.76460    0.41380    1.000
    N1       N        0.80460    0.67110    0.69510    1.000
    N2       N        0.83980    0.60190    0.62770    1.000
    N3       N        0.57060    0.53320    0.66960    1.000
    N4       N        0.86620    0.49970    0.80490    1.000
    N5       N        0.72960    0.46750    0.87230    1.000
    N6       N        0.70280    0.24020    0.83040    1.000
    N7       N        0.19540    0.32890    0.30490    1.000
    N8       N        0.16020    0.39810    0.37230    1.000
    N9       N        0.42940    0.46680    0.33040    1.000
    N10      N        0.13380    0.50030    0.19510    1.000
    N11      N        0.27040    0.53250    0.12770    1.000
    N12      N        0.29720    0.75980    0.16960    1.000
    O1       O        0.21590    0.49490    0.78100    1.000
    O2       O        0.30310    0.40050    0.87020    1.000
    O3       O        0.42950    0.77430    0.85400    1.000
    O4       O        0.35450    0.91750    0.93800    1.000
    O5       O        0.77590    0.99690    0.71900    1.000
    O6       O        0.77070    0.17330    0.62980    1.000
    O7       O        0.12830    0.28350    0.64600    1.000
    O8       O        0.35550    0.29250    0.56200    1.000
    O9       O        0.78410    0.50510    0.21900    1.000
    O10      O        0.69690    0.59950    0.12980    1.000
    O11      O        0.57050    0.22570    0.14600    1.000
    O12      O        0.64550    0.08250    0.06200    1.000
    O13      O        0.22410    0.00310    0.28100    1.000
    O14      O        0.22930    0.82670    0.37020    1.000
    O15      O        0.87170    0.71650    0.35400    1.000
    O16      O        0.64450    0.70750    0.43800    1.000
