# CIF file generated by openbabel 3.1.0, see https://openbabel.org
data_I
_chemical_name_common 'image0'
_cell_length_a 7.1722
_cell_length_b 12.8109
_cell_length_c 17.3162
_cell_angle_alpha 90
_cell_angle_beta 90.933
_cell_angle_gamma 90
_space_group_name_H-M_alt 'P 1'
_space_group_name_Hall 'P 1'
loop_
    _symmetry_equiv_pos_as_xyz
    x,y,z
loop_
    _atom_site_label
    _atom_site_type_symbol
    _atom_site_fract_x
    _atom_site_fract_y
    _atom_site_fract_z
    _atom_site_occupancy
    O1       O        0.10440    0.38175    0.06817    1.000
    O2       O        0.40913    0.40769    0.08749    1.000
    O3       O        0.08254    0.07144    0.39912    1.000
    O4       O        0.38757    0.09719    0.41828    1.000
    O5       O        0.74973    0.40901    0.00547    1.000
    H1       H        0.75860    0.35230    0.98030    1.000
    H2       H        0.74890    0.39100    0.05150    1.000
    C1       C        0.25710    0.36354    0.10175    1.000
    C2       C        0.23890    0.10445    0.37877    1.000
    C3       C        0.25560    0.28494    0.16699    1.000
    C4       C        0.10220    0.28266    0.21314    1.000
    H3       H        0.99910    0.32340    0.20020    1.000
    C5       C        0.09770    0.21981    0.27971    1.000
    H4       H        0.99040    0.21840    0.30910    1.000
    C6       C        0.24850    0.16061    0.30203    1.000
    C7       C        0.40830    0.15625    0.25359    1.000
    C8       C        0.40980    0.21744    0.18448    1.000
    C9       C        0.56160    0.20563    0.13380    1.000
    H5       H        0.56210    0.24310    0.08780    1.000
    C10      C        0.70680    0.14072    0.15099    1.000
    H6       H        0.80570    0.13500    0.11720    1.000
    C11      C        0.70770    0.08256    0.21955    1.000
    H7       H        0.80800    0.03900    0.23140    1.000
    C12      C        0.56280    0.08942    0.26884    1.000
    H8       H        0.56470    0.04940    0.31370    1.000
    O6       O        0.89560    0.88175    0.43183    1.000
    O7       O        0.59087    0.90769    0.41251    1.000
    O8       O        0.91746    0.57144    0.10088    1.000
    O9       O        0.61243    0.59719    0.08172    1.000
    O10      O        0.25027    0.90901    0.49453    1.000
    H9       H        0.24140    0.85230    0.51970    1.000
    H10      H        0.25110    0.89100    0.44850    1.000
    C13      C        0.74290    0.86354    0.39825    1.000
    C14      C        0.76110    0.60445    0.12123    1.000
    C15      C        0.74440    0.78494    0.33301    1.000
    C16      C        0.89780    0.78266    0.28686    1.000
    H11      H        0.00090    0.82340    0.29980    1.000
    C17      C        0.90230    0.71981    0.22029    1.000
    H12      H        0.00960    0.71840    0.19090    1.000
    C18      C        0.75150    0.66061    0.19797    1.000
    C19      C        0.59170    0.65625    0.24641    1.000
    C20      C        0.59020    0.71744    0.31552    1.000
    C21      C        0.43840    0.70563    0.36620    1.000
    H13      H        0.43790    0.74310    0.41220    1.000
    C22      C        0.29320    0.64072    0.34901    1.000
    H14      H        0.19430    0.63500    0.38280    1.000
    C23      C        0.29230    0.58256    0.28045    1.000
    H15      H        0.19200    0.53900    0.26860    1.000
    C24      C        0.43720    0.58942    0.23116    1.000
    H16      H        0.43530    0.54940    0.18630    1.000
    O11      O        0.89560    0.61825    0.93183    1.000
    O12      O        0.59087    0.59231    0.91251    1.000
    O13      O        0.91746    0.92856    0.60088    1.000
    O14      O        0.61243    0.90281    0.58172    1.000
    O15      O        0.25027    0.59099    0.99453    1.000
    H17      H        0.24140    0.64770    0.01970    1.000
    H18      H        0.25110    0.60900    0.94850    1.000
    C25      C        0.74290    0.63646    0.89825    1.000
    C26      C        0.76110    0.89555    0.62123    1.000
    C27      C        0.74440    0.71506    0.83301    1.000
    C28      C        0.89780    0.71734    0.78686    1.000
    H19      H        0.00090    0.67660    0.79980    1.000
    C29      C        0.90230    0.78019    0.72029    1.000
    H20      H        0.00960    0.78160    0.69090    1.000
    C30      C        0.75150    0.83939    0.69797    1.000
    C31      C        0.59170    0.84375    0.74641    1.000
    C32      C        0.59020    0.78256    0.81552    1.000
    C33      C        0.43840    0.79437    0.86620    1.000
    H21      H        0.43790    0.75690    0.91220    1.000
    C34      C        0.29320    0.85928    0.84901    1.000
    H22      H        0.19430    0.86500    0.88280    1.000
    C35      C        0.29230    0.91744    0.78045    1.000
    H23      H        0.19200    0.96100    0.76860    1.000
    C36      C        0.43720    0.91058    0.73116    1.000
    H24      H        0.43530    0.95060    0.68630    1.000
    O16      O        0.10440    0.11825    0.56817    1.000
    O17      O        0.40913    0.09231    0.58749    1.000
    O18      O        0.08254    0.42856    0.89912    1.000
    O19      O        0.38757    0.40281    0.91828    1.000
    O20      O        0.74973    0.09099    0.50547    1.000
    H25      H        0.75860    0.14770    0.48030    1.000
    H26      H        0.74890    0.10900    0.55150    1.000
    C37      C        0.25710    0.13646    0.60175    1.000
    C38      C        0.23890    0.39555    0.87877    1.000
    C39      C        0.25560    0.21506    0.66699    1.000
    C40      C        0.10220    0.21734    0.71314    1.000
    H27      H        0.99910    0.17660    0.70020    1.000
    C41      C        0.09770    0.28019    0.77971    1.000
    H28      H        0.99040    0.28160    0.80910    1.000
    C42      C        0.24850    0.33939    0.80203    1.000
    C43      C        0.40830    0.34375    0.75359    1.000
    C44      C        0.40980    0.28256    0.68448    1.000
    C45      C        0.56160    0.29437    0.63380    1.000
    H29      H        0.56210    0.25690    0.58780    1.000
    C46      C        0.70680    0.35928    0.65099    1.000
    H30      H        0.80570    0.36500    0.61720    1.000
    C47      C        0.70770    0.41744    0.71955    1.000
    H31      H        0.80800    0.46100    0.73140    1.000
    C48      C        0.56280    0.41058    0.76884    1.000
    H32      H        0.56470    0.45060    0.81370    1.000
    Mg1      Mg       0.50000    0.50000    0.00000    1.000
    Mg2      Mg       0.50000    0.00000    0.50000    1.000
    Mg3      Mg       0.00000    0.50000    0.00000    1.000
    Mg4      Mg       0.00000    0.00000    0.50000    1.000
