# CIF file generated by openbabel 3.1.0, see https://openbabel.org
data_I
_chemical_name_common 'image0'
_cell_length_a 5.221
_cell_length_b 12.86
_cell_length_c 14.561
_cell_angle_alpha 64.701
_cell_angle_beta 87.327
_cell_angle_gamma 89.894
_space_group_name_H-M_alt 'P 1'
_space_group_name_Hall 'P 1'
loop_
    _symmetry_equiv_pos_as_xyz
    x,y,z
loop_
    _atom_site_label
    _atom_site_type_symbol
    _atom_site_fract_x
    _atom_site_fract_y
    _atom_site_fract_z
    _atom_site_occupancy
    U1       U        0.16733    0.71630    0.41945    1.000
    P1       P        0.35750    0.45360    0.40930    1.000
    P2       P        0.48330    0.93490    0.18590    1.000
    O1       O        0.30200    0.00640    0.10230    1.000
    O2       O        0.73100    0.90630    0.14160    1.000
    O3       O        0.38400    0.58290    0.37590    1.000
    O4       O        0.45100    0.85350    0.43980    1.000
    P3       P        0.67790    0.93500    0.37610    1.000
    O5       O        0.60900    0.39350    0.43550    1.000
    O6       O        0.89900    0.86510    0.36490    1.000
    O7       O        0.16000    0.40250    0.49700    1.000
    C1       C        0.21900    0.43660    0.30150    1.000
    H1       H        0.06350    0.48070    0.28350    1.000
    H2       H        0.33970    0.46760    0.24310    1.000
    Zn1      Zn       0.34620    0.84530    0.57610    1.000
    P4       P        0.14560    0.28870    0.33070    1.000
    O8       O        0.35900    0.82510    0.26110    1.000
    O9       O        0.97400    0.24070    0.42540    1.000
    O10      O        0.38500    0.22380    0.33300    1.000
    O11      O        0.75100    0.01080    0.42610    1.000
    O12      O        0.97800    0.29440    0.23680    1.000
    C2       C        0.56300    0.02120    0.24960    1.000
    H3       H        0.41260    0.06260    0.25580    1.000
    H4       H        0.69460    0.07730    0.20920    1.000
    U2       U        0.83267    0.28370    0.58055    1.000
    P5       P        0.64250    0.54640    0.59070    1.000
    P6       P        0.51670    0.06510    0.81410    1.000
    O13      O        0.69800    0.99360    0.89770    1.000
    O14      O        0.26900    0.09370    0.85840    1.000
    O15      O        0.61600    0.41710    0.62410    1.000
    O16      O        0.54900    0.14650    0.56020    1.000
    P7       P        0.32210    0.06500    0.62390    1.000
    O17      O        0.39100    0.60650    0.56450    1.000
    O18      O        0.10100    0.13490    0.63510    1.000
    O19      O        0.84000    0.59750    0.50300    1.000
    C3       C        0.78100    0.56340    0.69850    1.000
    H5       H        0.93650    0.51930    0.71650    1.000
    H6       H        0.66030    0.53240    0.75690    1.000
    Zn2      Zn       0.65380    0.15470    0.42390    1.000
    P8       P        0.85440    0.71130    0.66930    1.000
    O20      O        0.64100    0.17490    0.73890    1.000
    O21      O        0.02600    0.75930    0.57460    1.000
    O22      O        0.61500    0.77620    0.66700    1.000
    O23      O        0.24900    0.98920    0.57390    1.000
    O24      O        0.02200    0.70560    0.76320    1.000
    C4       C        0.43700    0.97880    0.75040    1.000
    H7       H        0.58740    0.93740    0.74420    1.000
    H8       H        0.30540    0.92270    0.79080    1.000
    U3       U        0.00000    0.00000    0.00000    1.000
