# CIF file generated by openbabel 3.1.0, see https://openbabel.org
data_I
_chemical_name_common 'image0'
_cell_length_a 18.9522
_cell_length_b 15.9644
_cell_length_c 9.0028
_cell_angle_alpha 90
_cell_angle_beta 97.927
_cell_angle_gamma 90
_space_group_name_H-M_alt 'P 1'
_space_group_name_Hall 'P 1'
loop_
    _symmetry_equiv_pos_as_xyz
    x,y,z
loop_
    _atom_site_label
    _atom_site_type_symbol
    _atom_site_fract_x
    _atom_site_fract_y
    _atom_site_fract_z
    _atom_site_occupancy
    Ga1      Ga       0.23686    0.38119    0.92241    1.000
    Ga2      Ga       0.17235    0.13109    0.60289    1.000
    P1       P        0.14485    0.22424    0.90789    1.000
    P2       P        0.27649    0.52195    0.16057    1.000
    F1       F        0.07292    0.12620    0.58980    1.000
    O1       O        0.06510    0.21250    0.88230    1.000
    O2       O        0.16040    0.31720    0.95080    1.000
    O3       O        0.17560    0.16930    0.04350    1.000
    O4       O        0.18340    0.20310    0.77520    1.000
    O5       O        0.22660    0.46990    0.04660    1.000
    O6       O        0.22710    0.58520    0.22630    1.000
    O7       O        0.33220    0.56810    0.08330    1.000
    O8       O        0.31570    0.47030    0.28660    1.000
    O9       O        0.27610    0.15680    0.59580    1.000
    O10      O        0.34200    0.26320    0.52530    1.000
    O11      O        0.05010    0.03170    0.91750    1.000
    O12      O        0.03200    0.00100    0.84600    1.000
    C1       C        0.28440    0.22640    0.53510    1.000
    Ga3      Ga       0.73686    0.88119    0.92241    1.000
    Ga4      Ga       0.67235    0.63109    0.60289    1.000
    P3       P        0.64485    0.72424    0.90789    1.000
    P4       P        0.77649    0.02195    0.16057    1.000
    F2       F        0.57292    0.62620    0.58980    1.000
    O13      O        0.56510    0.71250    0.88230    1.000
    O14      O        0.66040    0.81720    0.95080    1.000
    O15      O        0.67560    0.66930    0.04350    1.000
    O16      O        0.68340    0.70310    0.77520    1.000
    O17      O        0.72660    0.96990    0.04660    1.000
    O18      O        0.72710    0.08520    0.22630    1.000
    O19      O        0.83220    0.06810    0.08330    1.000
    O20      O        0.81570    0.97030    0.28660    1.000
    O21      O        0.77610    0.65680    0.59580    1.000
    O22      O        0.84200    0.76320    0.52530    1.000
    O23      O        0.55010    0.53170    0.91750    1.000
    O24      O        0.53200    0.50100    0.84600    1.000
    C2       C        0.78440    0.72640    0.53510    1.000
    Ga5      Ga       0.76314    0.38119    0.57759    1.000
    Ga6      Ga       0.82765    0.13109    0.89711    1.000
    P5       P        0.85515    0.22424    0.59211    1.000
    P6       P        0.72351    0.52195    0.33943    1.000
    F3       F        0.92708    0.12620    0.91020    1.000
    O25      O        0.93490    0.21250    0.61770    1.000
    O26      O        0.83960    0.31720    0.54920    1.000
    O27      O        0.82440    0.16930    0.45650    1.000
    O28      O        0.81660    0.20310    0.72480    1.000
    O29      O        0.77340    0.46990    0.45340    1.000
    O30      O        0.77290    0.58520    0.27370    1.000
    O31      O        0.66780    0.56810    0.41670    1.000
    O32      O        0.68430    0.47030    0.21340    1.000
    O33      O        0.72390    0.15680    0.90420    1.000
    O34      O        0.65800    0.26320    0.97470    1.000
    O35      O        0.94990    0.03170    0.58250    1.000
    O36      O        0.96800    0.00100    0.65400    1.000
    C3       C        0.71560    0.22640    0.96490    1.000
    Ga7      Ga       0.26314    0.88119    0.57759    1.000
    Ga8      Ga       0.32765    0.63109    0.89711    1.000
    P7       P        0.35515    0.72424    0.59211    1.000
    P8       P        0.22351    0.02195    0.33943    1.000
    F4       F        0.42708    0.62620    0.91020    1.000
    O37      O        0.43490    0.71250    0.61770    1.000
    O38      O        0.33960    0.81720    0.54920    1.000
    O39      O        0.32440    0.66930    0.45650    1.000
    O40      O        0.31660    0.70310    0.72480    1.000
    O41      O        0.27340    0.96990    0.45340    1.000
    O42      O        0.27290    0.08520    0.27370    1.000
    O43      O        0.16780    0.06810    0.41670    1.000
    O44      O        0.18430    0.97030    0.21340    1.000
    O45      O        0.22390    0.65680    0.90420    1.000
    O46      O        0.15800    0.76320    0.97470    1.000
    O47      O        0.44990    0.53170    0.58250    1.000
    O48      O        0.46800    0.50100    0.65400    1.000
    C4       C        0.21560    0.72640    0.96490    1.000
    Ga9      Ga       0.76314    0.61881    0.07759    1.000
    Ga10     Ga       0.82765    0.86891    0.39711    1.000
    P9       P        0.85515    0.77576    0.09211    1.000
    P10      P        0.72351    0.47805    0.83943    1.000
    F5       F        0.92708    0.87380    0.41020    1.000
    O49      O        0.93490    0.78750    0.11770    1.000
    O50      O        0.83960    0.68280    0.04920    1.000
    O51      O        0.82440    0.83070    0.95650    1.000
    O52      O        0.81660    0.79690    0.22480    1.000
    O53      O        0.77340    0.53010    0.95340    1.000
    O54      O        0.77290    0.41480    0.77370    1.000
    O55      O        0.66780    0.43190    0.91670    1.000
    O56      O        0.68430    0.52970    0.71340    1.000
    O57      O        0.72390    0.84320    0.40420    1.000
    O58      O        0.65800    0.73680    0.47470    1.000
    O59      O        0.94990    0.96830    0.08250    1.000
    O60      O        0.96800    0.99900    0.15400    1.000
    C5       C        0.71560    0.77360    0.46490    1.000
    Ga11     Ga       0.26314    0.11881    0.07759    1.000
    Ga12     Ga       0.32765    0.36891    0.39711    1.000
    P11      P        0.35515    0.27576    0.09211    1.000
    P12      P        0.22351    0.97805    0.83943    1.000
    F6       F        0.42708    0.37380    0.41020    1.000
    O61      O        0.43490    0.28750    0.11770    1.000
    O62      O        0.33960    0.18280    0.04920    1.000
    O63      O        0.32440    0.33070    0.95650    1.000
    O64      O        0.31660    0.29690    0.22480    1.000
    O65      O        0.27340    0.03010    0.95340    1.000
    O66      O        0.27290    0.91480    0.77370    1.000
    O67      O        0.16780    0.93190    0.91670    1.000
    O68      O        0.18430    0.02970    0.71340    1.000
    O69      O        0.22390    0.34320    0.40420    1.000
    O70      O        0.15800    0.23680    0.47470    1.000
    O71      O        0.44990    0.46830    0.08250    1.000
    O72      O        0.46800    0.49900    0.15400    1.000
    C6       C        0.21560    0.27360    0.46490    1.000
    Ga13     Ga       0.23686    0.61881    0.42241    1.000
    Ga14     Ga       0.17235    0.86891    0.10289    1.000
    P13      P        0.14485    0.77576    0.40789    1.000
    P14      P        0.27649    0.47805    0.66057    1.000
    F7       F        0.07292    0.87380    0.08980    1.000
    O73      O        0.06510    0.78750    0.38230    1.000
    O74      O        0.16040    0.68280    0.45080    1.000
    O75      O        0.17560    0.83070    0.54350    1.000
    O76      O        0.18340    0.79690    0.27520    1.000
    O77      O        0.22660    0.53010    0.54660    1.000
    O78      O        0.22710    0.41480    0.72630    1.000
    O79      O        0.33220    0.43190    0.58330    1.000
    O80      O        0.31570    0.52970    0.78660    1.000
    O81      O        0.27610    0.84320    0.09580    1.000
    O82      O        0.34200    0.73680    0.02530    1.000
    O83      O        0.05010    0.96830    0.41750    1.000
    O84      O        0.03200    0.99900    0.34600    1.000
    C7       C        0.28440    0.77360    0.03510    1.000
    Ga15     Ga       0.73686    0.11881    0.42241    1.000
    Ga16     Ga       0.67235    0.36891    0.10289    1.000
    P15      P        0.64485    0.27576    0.40789    1.000
    P16      P        0.77649    0.97805    0.66057    1.000
    F8       F        0.57292    0.37380    0.08980    1.000
    O85      O        0.56510    0.28750    0.38230    1.000
    O86      O        0.66040    0.18280    0.45080    1.000
    O87      O        0.67560    0.33070    0.54350    1.000
    O88      O        0.68340    0.29690    0.27520    1.000
    O89      O        0.72660    0.03010    0.54660    1.000
    O90      O        0.72710    0.91480    0.72630    1.000
    O91      O        0.83220    0.93190    0.58330    1.000
    O92      O        0.81570    0.02970    0.78660    1.000
    O93      O        0.77610    0.34320    0.09580    1.000
    O94      O        0.84200    0.23680    0.02530    1.000
    O95      O        0.55010    0.46830    0.41750    1.000
    O96      O        0.53200    0.49900    0.34600    1.000
    C8       C        0.78440    0.27360    0.03510    1.000
    Mn1      Mn       0.00000    0.12520    0.75000    1.000
    Mn2      Mn       0.50000    0.62520    0.75000    1.000
    Mn3      Mn       0.00000    0.87480    0.25000    1.000
    Mn4      Mn       0.50000    0.37480    0.25000    1.000
