# CIF file generated by openbabel 3.1.0, see https://openbabel.org
data_I
_chemical_name_common 'image0'
_cell_length_a 18.208
_cell_length_b 8.797
_cell_length_c 20.665
_cell_angle_alpha 90
_cell_angle_beta 112.43
_cell_angle_gamma 90
_space_group_name_H-M_alt 'P 1'
_space_group_name_Hall 'P 1'
loop_
    _symmetry_equiv_pos_as_xyz
    x,y,z
loop_
    _atom_site_label
    _atom_site_type_symbol
    _atom_site_fract_x
    _atom_site_fract_y
    _atom_site_fract_z
    _atom_site_occupancy
    Ce1      Ce       0.97806    0.47194    0.23361    1.000
    O1       O        0.04420    0.24610    0.21170    1.000
    O2       O        0.95530    0.20720    0.29520    1.000
    O3       O        0.89330    0.41310    0.30580    1.000
    O4       O        0.98440    0.75190    0.17930    1.000
    O5       O        0.97130    0.54970    0.11220    1.000
    O6       O        0.87550    0.30890    0.14600    1.000
    O7       O        0.99540    0.69770    0.31260    1.000
    Ce2      Ce       0.00141    0.97290    0.25754    1.000
    C1       C        0.08070    0.17070    0.18060    1.000
    C2       C        0.91340    0.27770    0.32270    1.000
    C3       C        0.87640    0.18900    0.11670    1.000
    O8       O        0.09130    0.03080    0.18810    1.000
    O9       O        0.12370    0.09700    0.34580    1.000
    O10      O        0.14830    0.86110    0.32450    1.000
    O11      O        0.89850    0.05900    0.14560    1.000
    O12      O        0.01350    0.89640    0.38120    1.000
    C4       C        0.11330    0.25680    0.13360    1.000
    C5       C        0.89320    0.20020    0.37760    1.000
    C6       C        0.84880    0.18210    0.03730    1.000
    H1       H        0.09750    0.36260    0.13140    1.000
    H2       H        0.17090    0.25270    0.15390    1.000
    C7       C        0.08400    0.19220    0.06030    1.000
    H3       H        0.89580    0.09090    0.37260    1.000
    H4       H        0.83940    0.22640    0.37220    1.000
    C8       C        0.95200    0.24900    0.45160    1.000
    H5       H        0.89080    0.13690    0.02580    1.000
    C9       C        0.82640    0.33060    0.99950    1.000
    H6       H        0.80320    0.11480    0.01970    1.000
    H7       H        0.09770    0.09320    0.05370    1.000
    C10      C        0.04000    0.27190    0.00620    1.000
    C11      C        0.93600    0.30500    0.50100    1.000
    C12      C        0.77910    0.34260    0.93480    1.000
    H8       H        0.84780    0.41910    0.02400    1.000
    H9       H        0.02850    0.37210    0.01330    1.000
    C13      C        0.00660    0.20940    0.93200    1.000
    C14      C        0.99480    0.34840    0.56950    1.000
    H10      H        0.75390    0.25430    0.91260    1.000
    C15      C        0.76080    0.48530    0.89200    1.000
    H11      H        0.03160    0.11220    0.93180    1.000
    H12      H        0.95020    0.19110    0.91890    1.000
    C16      C        0.01770    0.31070    0.87720    1.000
    H13      H        0.98450    0.45180    0.57990    1.000
    H14      H        0.04720    0.34620    0.56770    1.000
    C17      C        0.99420    0.24480    0.62800    1.000
    C18      C        0.67180    0.50930    0.85360    1.000
    H15      H        0.78570    0.48030    0.85810    1.000
    H16      H        0.78310    0.57150    0.92240    1.000
    C19      C        0.91270    0.29300    0.44470    1.000
    C20      C        0.97100    0.25900    0.49950    1.000
    Ce3      Ce       0.52194    0.97194    0.26639    1.000
    O13      O        0.45580    0.74610    0.28830    1.000
    O14      O        0.54470    0.70720    0.20480    1.000
    O15      O        0.60670    0.91310    0.19420    1.000
    O16      O        0.51560    0.25190    0.32070    1.000
    O17      O        0.52870    0.04970    0.38780    1.000
    O18      O        0.62450    0.80890    0.35400    1.000
    O19      O        0.50460    0.19770    0.18740    1.000
    Ce4      Ce       0.49859    0.47290    0.24246    1.000
    C21      C        0.41930    0.67070    0.31940    1.000
    C22      C        0.58660    0.77770    0.17730    1.000
    C23      C        0.62360    0.68900    0.38330    1.000
    O20      O        0.40870    0.53080    0.31190    1.000
    O21      O        0.37630    0.59700    0.15420    1.000
    O22      O        0.35170    0.36110    0.17550    1.000
    O23      O        0.60150    0.55900    0.35440    1.000
    O24      O        0.48650    0.39640    0.11880    1.000
    C24      C        0.38670    0.75680    0.36640    1.000
    C25      C        0.60680    0.70020    0.12240    1.000
    C26      C        0.65120    0.68210    0.46270    1.000
    H17      H        0.40250    0.86260    0.36860    1.000
    H18      H        0.32910    0.75270    0.34610    1.000
    C27      C        0.41600    0.69220    0.43970    1.000
    H19      H        0.60420    0.59090    0.12740    1.000
    H20      H        0.66060    0.72640    0.12780    1.000
    C28      C        0.54800    0.74900    0.04840    1.000
    H21      H        0.60920    0.63690    0.47420    1.000
    C29      C        0.67360    0.83060    0.50050    1.000
    H22      H        0.69680    0.61480    0.48030    1.000
    H23      H        0.40230    0.59320    0.44630    1.000
    C30      C        0.46000    0.77190    0.49380    1.000
    C31      C        0.56400    0.80500    0.99900    1.000
    C32      C        0.72090    0.84260    0.56520    1.000
    H24      H        0.65220    0.91910    0.47600    1.000
    H25      H        0.47150    0.87210    0.48670    1.000
    C33      C        0.49340    0.70940    0.56800    1.000
    C34      C        0.50520    0.84840    0.93050    1.000
    H26      H        0.74610    0.75430    0.58740    1.000
    C35      C        0.73920    0.98530    0.60800    1.000
    H27      H        0.46840    0.61220    0.56820    1.000
    H28      H        0.54980    0.69110    0.58110    1.000
    C36      C        0.48230    0.81070    0.62280    1.000
    H29      H        0.51550    0.95180    0.92010    1.000
    H30      H        0.45280    0.84620    0.93230    1.000
    C37      C        0.50580    0.74480    0.87200    1.000
    C38      C        0.82820    0.00930    0.64640    1.000
    H31      H        0.71430    0.98030    0.64190    1.000
    H32      H        0.71690    0.07150    0.57760    1.000
    C39      C        0.58730    0.79300    0.05530    1.000
    C40      C        0.52900    0.75900    0.00050    1.000
    Ce5      Ce       0.02194    0.52806    0.76639    1.000
    O25      O        0.95580    0.75390    0.78830    1.000
    O26      O        0.04470    0.79280    0.70480    1.000
    O27      O        0.10670    0.58690    0.69420    1.000
    O28      O        0.01560    0.24810    0.82070    1.000
    O29      O        0.02870    0.45030    0.88780    1.000
    O30      O        0.12450    0.69110    0.85400    1.000
    O31      O        0.00460    0.30230    0.68740    1.000
    Ce6      Ce       0.99859    0.02710    0.74246    1.000
    C41      C        0.91930    0.82930    0.81940    1.000
    C42      C        0.08660    0.72230    0.67730    1.000
    C43      C        0.12360    0.81100    0.88330    1.000
    O32      O        0.90870    0.96920    0.81190    1.000
    O33      O        0.87630    0.90300    0.65420    1.000
    O34      O        0.85170    0.13890    0.67550    1.000
    O35      O        0.10150    0.94100    0.85440    1.000
    O36      O        0.98650    0.10360    0.61880    1.000
    C44      C        0.88670    0.74320    0.86640    1.000
    C45      C        0.10680    0.79980    0.62240    1.000
    C46      C        0.15120    0.81790    0.96270    1.000
    H33      H        0.90250    0.63740    0.86860    1.000
    H34      H        0.82910    0.74730    0.84610    1.000
    C47      C        0.91600    0.80780    0.93970    1.000
    H35      H        0.10420    0.90910    0.62740    1.000
    H36      H        0.16060    0.77360    0.62780    1.000
    C48      C        0.04800    0.75100    0.54840    1.000
    H37      H        0.10920    0.86310    0.97420    1.000
    C49      C        0.17360    0.66940    0.00050    1.000
    H38      H        0.19680    0.88520    0.98030    1.000
    H39      H        0.90230    0.90680    0.94630    1.000
    C50      C        0.96000    0.72810    0.99380    1.000
    C51      C        0.06400    0.69500    0.49900    1.000
    C52      C        0.22090    0.65740    0.06520    1.000
    H40      H        0.15220    0.58090    0.97600    1.000
    H41      H        0.97150    0.62790    0.98670    1.000
    C53      C        0.99340    0.79060    0.06800    1.000
    C54      C        0.00520    0.65160    0.43050    1.000
    H42      H        0.24610    0.74570    0.08740    1.000
    C55      C        0.23920    0.51470    0.10800    1.000
    H43      H        0.96840    0.88780    0.06820    1.000
    H44      H        0.04980    0.80890    0.08110    1.000
    C56      C        0.98230    0.68930    0.12280    1.000
    H45      H        0.01550    0.54820    0.42010    1.000
    H46      H        0.95280    0.65380    0.43230    1.000
    C57      C        0.00580    0.75520    0.37200    1.000
    C58      C        0.32820    0.49070    0.14640    1.000
    H47      H        0.21430    0.51970    0.14190    1.000
    H48      H        0.21690    0.42850    0.07760    1.000
    C59      C        0.08730    0.70700    0.55530    1.000
    C60      C        0.02900    0.74100    0.50050    1.000
    Ce7      Ce       0.47806    0.02806    0.73361    1.000
    O37      O        0.54420    0.25390    0.71170    1.000
    O38      O        0.45530    0.29280    0.79520    1.000
    O39      O        0.39330    0.08690    0.80580    1.000
    O40      O        0.48440    0.74810    0.67930    1.000
    O41      O        0.47130    0.95030    0.61220    1.000
    O42      O        0.37550    0.19110    0.64600    1.000
    O43      O        0.49540    0.80230    0.81260    1.000
    Ce8      Ce       0.50141    0.52710    0.75754    1.000
    C61      C        0.58070    0.32930    0.68060    1.000
    C62      C        0.41340    0.22230    0.82270    1.000
    C63      C        0.37640    0.31100    0.61670    1.000
    O44      O        0.59130    0.46920    0.68810    1.000
    O45      O        0.62370    0.40300    0.84580    1.000
    O46      O        0.64830    0.63890    0.82450    1.000
    O47      O        0.39850    0.44100    0.64560    1.000
    O48      O        0.51350    0.60360    0.88120    1.000
    C64      C        0.61330    0.24320    0.63360    1.000
    C65      C        0.39320    0.29980    0.87760    1.000
    C66      C        0.34880    0.31790    0.53730    1.000
    H49      H        0.59750    0.13740    0.63140    1.000
    H50      H        0.67090    0.24730    0.65390    1.000
    C67      C        0.58400    0.30780    0.56030    1.000
    H51      H        0.39580    0.40910    0.87260    1.000
    H52      H        0.33940    0.27360    0.87220    1.000
    C68      C        0.45200    0.25100    0.95160    1.000
    H53      H        0.39080    0.36310    0.52580    1.000
    C69      C        0.32640    0.16940    0.49950    1.000
    H54      H        0.30320    0.38520    0.51970    1.000
    H55      H        0.59770    0.40680    0.55370    1.000
    C70      C        0.54000    0.22810    0.50620    1.000
    C71      C        0.43600    0.19500    0.00100    1.000
    C72      C        0.27910    0.15740    0.43480    1.000
    H56      H        0.34780    0.08090    0.52400    1.000
    H57      H        0.52850    0.12790    0.51330    1.000
    C73      C        0.50660    0.29060    0.43200    1.000
    C74      C        0.49480    0.15160    0.06950    1.000
    H58      H        0.25390    0.24570    0.41260    1.000
    C75      C        0.26080    0.01470    0.39200    1.000
    H59      H        0.53160    0.38780    0.43180    1.000
    H60      H        0.45020    0.30890    0.41890    1.000
    C76      C        0.51770    0.18930    0.37720    1.000
    H61      H        0.48450    0.04820    0.07990    1.000
    H62      H        0.54720    0.15380    0.06770    1.000
    C77      C        0.49420    0.25520    0.12800    1.000
    C78      C        0.17180    0.99070    0.35360    1.000
    H63      H        0.28570    0.01970    0.35810    1.000
    H64      H        0.28310    0.92850    0.42240    1.000
    C79      C        0.41270    0.20700    0.94470    1.000
    C80      C        0.47100    0.24100    0.99950    1.000
