# CIF file generated by openbabel 3.1.0, see https://openbabel.org
data_I
_chemical_name_common 'image0'
_cell_length_a 27.908
_cell_length_b 13.845
_cell_length_c 44.236
_cell_angle_alpha 90
_cell_angle_beta 90
_cell_angle_gamma 90
_space_group_name_H-M_alt 'P 1'
_space_group_name_Hall 'P 1'
loop_
    _symmetry_equiv_pos_as_xyz
    x,y,z
loop_
    _atom_site_label
    _atom_site_type_symbol
    _atom_site_fract_x
    _atom_site_fract_y
    _atom_site_fract_z
    _atom_site_occupancy
    Zn1      Zn       0.45374    0.85923    0.08775    1.000
    Zn2      Zn       0.23999    0.18258    0.31968    1.000
    Zn3      Zn       0.47623    0.61954    0.91383    1.000
    I1       I        0.44572    0.67658    0.08409    1.000
    I2       I        0.51783    0.94726    0.11766    1.000
    I3       I        0.32878    0.18743    0.33249    1.000
    I4       I        0.19487    0.34091    0.31181    1.000
    I5       I        0.42807    0.70606    0.87375    1.000
    I6       I        0.49372    0.69537    0.96553    1.000
    C1       C        0.31690    0.85390    0.87428    1.000
    H1       H        0.31620    0.78540    0.87510    1.000
    C2       C        0.34050    0.90380    0.89730    1.000
    H2       H        0.35500    0.87000    0.91360    1.000
    C3       C        0.29760    0.99450    0.85032    1.000
    H3       H        0.28240    0.02680    0.83390    1.000
    C4       C        0.32050    0.04910    0.87190    1.000
    H4       H        0.32150    0.11750    0.87030    1.000
    C5       C        0.34214    0.00290    0.89588    1.000
    C6       C        0.36805    0.05820    0.91951    1.000
    C7       C        0.42657    0.43450    0.89968    1.000
    H5       H        0.42390    0.46350    0.88030    1.000
    C8       C        0.41080    0.34140    0.90333    1.000
    H6       H        0.39720    0.30720    0.88680    1.000
    C9       C        0.44947    0.44450    0.94955    1.000
    H7       H        0.46300    0.48040    0.96570    1.000
    C10      C        0.43450    0.35160    0.95498    1.000
    H8       H        0.43760    0.32420    0.97460    1.000
    C11      C        0.41488    0.29820    0.93140    1.000
    C12      C        0.40161    0.19590    0.93609    1.000
    C13      C        0.45716    0.01270    0.04117    1.000
    H9       H        0.47180    0.04810    0.05710    1.000
    C14      C        0.44512    0.06040    0.01502    1.000
    H10      H        0.45140    0.12760    0.01300    1.000
    C15      C        0.43080    0.86780    0.02194    1.000
    H11      H        0.42680    0.80000    0.02410    1.000
    C16      C        0.41730    0.91000    0.99477    1.000
    H12      H        0.40420    0.87230    0.97880    1.000
    C17      C        0.42367    0.00930    0.99159    1.000
    C18      C        0.40763    0.05990    0.96387    1.000
    C19      C        0.34732    0.89220    0.08989    1.000
    H13      H        0.34850    0.87170    0.06940    1.000
    C20      C        0.30287    0.90800    0.10286    1.000
    H14      H        0.27420    0.89880    0.09160    1.000
    C21      C        0.38673    0.93650    0.13345    1.000
    H15      H        0.41580    0.94880    0.14390    1.000
    C22      C        0.34411    0.95180    0.14800    1.000
    H16      H        0.34390    0.97210    0.16850    1.000
    C23      C        0.30151    0.93760    0.13289    1.000
    C24      C        0.25544    0.95160    0.14886    1.000
    C25      C        0.26830    0.06510    0.26668    1.000
    H17      H        0.29860    0.06510    0.27650    1.000
    C26      C        0.26508    0.02650    0.23802    1.000
    H18      H        0.29280    0.00230    0.22810    1.000
    C27      C        0.18730    0.09800    0.26769    1.000
    H19      H        0.16020    0.12310    0.27810    1.000
    C28      C        0.18090    0.05790    0.23931    1.000
    H20      H        0.14990    0.05410    0.23060    1.000
    C29      C        0.22074    0.02330    0.22379    1.000
    C30      C        0.21733    0.98910    0.19230    1.000
    C31      C        0.04280    0.93170    0.13585    1.000
    H21      H        0.01370    0.93510    0.14690    1.000
    C32      C        0.08540    0.94600    0.15111    1.000
    H22      H        0.08540    0.95920    0.17220    1.000
    C33      C        0.08189    0.91030    0.09091    1.000
    H23      H        0.08080    0.89850    0.06980    1.000
    C34      C        0.12620    0.92350    0.10467    1.000
    H24      H        0.15480    0.92060    0.09310    1.000
    C35      C        0.12822    0.94090    0.13507    1.000
    C36      C        0.17486    0.95240    0.15045    1.000
    N1       N        0.29565    0.89800    0.85139    1.000
    N2       N        0.44568    0.48660    0.92235    1.000
    N3       N        0.44898    0.91710    0.04512    1.000
    N4       N        0.37569    0.15260    0.91496    1.000
    N5       N        0.41855    0.15320    0.96118    1.000
    N6       N        0.38294    0.00850    0.94371    1.000
    N7       N        0.38872    0.90430    0.10468    1.000
    N8       N        0.23058    0.10270    0.28109    1.000
    N9       N        0.04079    0.91340    0.10634    1.000
    N10      N        0.25876    0.97600    0.17811    1.000
    N11      N        0.17397    0.97820    0.17990    1.000
    N12      N        0.21427    0.93850    0.13399    1.000
    Zn4      Zn       0.04626    0.14077    0.58775    1.000
    Zn5      Zn       0.26001    0.81742    0.81968    1.000
    Zn6      Zn       0.02377    0.38046    0.41383    1.000
    I7       I        0.05428    0.32342    0.58409    1.000
    I8       I        0.98217    0.05274    0.61766    1.000
    I9       I        0.17122    0.81257    0.83249    1.000
    I10      I        0.30513    0.65909    0.81181    1.000
    I11      I        0.07193    0.29394    0.37375    1.000
    I12      I        0.00628    0.30463    0.46553    1.000
    C37      C        0.18310    0.14610    0.37428    1.000
    H25      H        0.18380    0.21460    0.37510    1.000
    C38      C        0.15950    0.09620    0.39730    1.000
    H26      H        0.14500    0.13000    0.41360    1.000
    C39      C        0.20240    0.00550    0.35032    1.000
    H27      H        0.21760    0.97320    0.33390    1.000
    C40      C        0.17950    0.95090    0.37190    1.000
    H28      H        0.17850    0.88250    0.37030    1.000
    C41      C        0.15786    0.99710    0.39588    1.000
    C42      C        0.13195    0.94180    0.41951    1.000
    C43      C        0.07343    0.56550    0.39968    1.000
    H29      H        0.07610    0.53650    0.38030    1.000
    C44      C        0.08920    0.65860    0.40333    1.000
    H30      H        0.10280    0.69280    0.38680    1.000
    C45      C        0.05053    0.55550    0.44955    1.000
    H31      H        0.03700    0.51960    0.46570    1.000
    C46      C        0.06550    0.64840    0.45498    1.000
    H32      H        0.06240    0.67580    0.47460    1.000
    C47      C        0.08512    0.70180    0.43140    1.000
    C48      C        0.09839    0.80410    0.43609    1.000
    C49      C        0.04284    0.98730    0.54117    1.000
    H33      H        0.02820    0.95190    0.55710    1.000
    C50      C        0.05488    0.93960    0.51502    1.000
    H34      H        0.04860    0.87240    0.51300    1.000
    C51      C        0.06920    0.13220    0.52194    1.000
    H35      H        0.07320    0.20000    0.52410    1.000
    C52      C        0.08270    0.09000    0.49477    1.000
    H36      H        0.09580    0.12770    0.47880    1.000
    C53      C        0.07633    0.99070    0.49159    1.000
    C54      C        0.09237    0.94010    0.46387    1.000
    C55      C        0.15268    0.10780    0.58989    1.000
    H37      H        0.15150    0.12830    0.56940    1.000
    C56      C        0.19713    0.09200    0.60286    1.000
    H38      H        0.22580    0.10120    0.59160    1.000
    C57      C        0.11327    0.06350    0.63345    1.000
    H39      H        0.08420    0.05120    0.64390    1.000
    C58      C        0.15589    0.04820    0.64800    1.000
    H40      H        0.15610    0.02790    0.66850    1.000
    C59      C        0.19849    0.06240    0.63289    1.000
    C60      C        0.24456    0.04840    0.64886    1.000
    C61      C        0.23170    0.93490    0.76668    1.000
    H41      H        0.20140    0.93490    0.77650    1.000
    C62      C        0.23492    0.97350    0.73802    1.000
    H42      H        0.20720    0.99770    0.72810    1.000
    C63      C        0.31270    0.90200    0.76769    1.000
    H43      H        0.33980    0.87690    0.77810    1.000
    C64      C        0.31910    0.94210    0.73931    1.000
    H44      H        0.35010    0.94590    0.73060    1.000
    C65      C        0.27926    0.97670    0.72379    1.000
    C66      C        0.28267    0.01090    0.69230    1.000
    C67      C        0.45720    0.06830    0.63585    1.000
    H45      H        0.48630    0.06490    0.64690    1.000
    C68      C        0.41460    0.05400    0.65111    1.000
    H46      H        0.41460    0.04080    0.67220    1.000
    C69      C        0.41811    0.08970    0.59091    1.000
    H47      H        0.41920    0.10150    0.56980    1.000
    C70      C        0.37380    0.07650    0.60467    1.000
    H48      H        0.34520    0.07940    0.59310    1.000
    C71      C        0.37178    0.05910    0.63507    1.000
    C72      C        0.32514    0.04760    0.65045    1.000
    N13      N        0.20435    0.10200    0.35139    1.000
    N14      N        0.05432    0.51340    0.42235    1.000
    N15      N        0.05102    0.08290    0.54512    1.000
    N16      N        0.12431    0.84740    0.41496    1.000
    N17      N        0.08145    0.84680    0.46118    1.000
    N18      N        0.11706    0.99150    0.44371    1.000
    N19      N        0.11128    0.09570    0.60468    1.000
    N20      N        0.26942    0.89730    0.78109    1.000
    N21      N        0.45921    0.08660    0.60634    1.000
    N22      N        0.24124    0.02400    0.67811    1.000
    N23      N        0.32603    0.02180    0.67990    1.000
    N24      N        0.28573    0.06150    0.63399    1.000
    Zn7      Zn       0.54626    0.35923    0.41225    1.000
    Zn8      Zn       0.76001    0.68258    0.18032    1.000
    Zn9      Zn       0.52377    0.11954    0.58617    1.000
    I13      I        0.55428    0.17658    0.41591    1.000
    I14      I        0.48217    0.44726    0.38234    1.000
    I15      I        0.67122    0.68743    0.16751    1.000
    I16      I        0.80513    0.84091    0.18819    1.000
    I17      I        0.57193    0.20606    0.62625    1.000
    I18      I        0.50628    0.19537    0.53447    1.000
    C73      C        0.68310    0.35390    0.62572    1.000
    H49      H        0.68380    0.28540    0.62490    1.000
    C74      C        0.65950    0.40380    0.60270    1.000
    H50      H        0.64500    0.37000    0.58640    1.000
    C75      C        0.70240    0.49450    0.64968    1.000
    H51      H        0.71760    0.52680    0.66610    1.000
    C76      C        0.67950    0.54910    0.62810    1.000
    H52      H        0.67850    0.61750    0.62970    1.000
    C77      C        0.65786    0.50290    0.60412    1.000
    C78      C        0.63195    0.55820    0.58049    1.000
    C79      C        0.57343    0.93450    0.60032    1.000
    H53      H        0.57610    0.96350    0.61970    1.000
    C80      C        0.58920    0.84140    0.59667    1.000
    H54      H        0.60280    0.80720    0.61320    1.000
    C81      C        0.55053    0.94450    0.55045    1.000
    H55      H        0.53700    0.98040    0.53430    1.000
    C82      C        0.56550    0.85160    0.54502    1.000
    H56      H        0.56240    0.82420    0.52540    1.000
    C83      C        0.58512    0.79820    0.56860    1.000
    C84      C        0.59839    0.69590    0.56391    1.000
    C85      C        0.54284    0.51270    0.45883    1.000
    H57      H        0.52820    0.54810    0.44290    1.000
    C86      C        0.55488    0.56040    0.48498    1.000
    H58      H        0.54860    0.62760    0.48700    1.000
    C87      C        0.56920    0.36780    0.47806    1.000
    H59      H        0.57320    0.30000    0.47590    1.000
    C88      C        0.58270    0.41000    0.50523    1.000
    H60      H        0.59580    0.37230    0.52120    1.000
    C89      C        0.57633    0.50930    0.50841    1.000
    C90      C        0.59237    0.55990    0.53613    1.000
    C91      C        0.65268    0.39220    0.41011    1.000
    H61      H        0.65150    0.37170    0.43060    1.000
    C92      C        0.69713    0.40800    0.39714    1.000
    H62      H        0.72580    0.39880    0.40840    1.000
    C93      C        0.61327    0.43650    0.36655    1.000
    H63      H        0.58420    0.44880    0.35610    1.000
    C94      C        0.65589    0.45180    0.35200    1.000
    H64      H        0.65610    0.47210    0.33150    1.000
    C95      C        0.69849    0.43760    0.36711    1.000
    C96      C        0.74456    0.45160    0.35114    1.000
    C97      C        0.73170    0.56510    0.23332    1.000
    H65      H        0.70140    0.56510    0.22350    1.000
    C98      C        0.73492    0.52650    0.26198    1.000
    H66      H        0.70720    0.50230    0.27190    1.000
    C99      C        0.81270    0.59800    0.23231    1.000
    H67      H        0.83980    0.62310    0.22190    1.000
    C100     C        0.81910    0.55790    0.26069    1.000
    H68      H        0.85010    0.55410    0.26940    1.000
    C101     C        0.77926    0.52330    0.27621    1.000
    C102     C        0.78267    0.48910    0.30770    1.000
    C103     C        0.95720    0.43170    0.36415    1.000
    H69      H        0.98630    0.43510    0.35310    1.000
    C104     C        0.91460    0.44600    0.34889    1.000
    H70      H        0.91460    0.45920    0.32780    1.000
    C105     C        0.91811    0.41030    0.40909    1.000
    H71      H        0.91920    0.39850    0.43020    1.000
    C106     C        0.87380    0.42350    0.39533    1.000
    H72      H        0.84520    0.42060    0.40690    1.000
    C107     C        0.87178    0.44090    0.36493    1.000
    C108     C        0.82514    0.45240    0.34955    1.000
    N25      N        0.70435    0.39800    0.64861    1.000
    N26      N        0.55432    0.98660    0.57765    1.000
    N27      N        0.55102    0.41710    0.45488    1.000
    N28      N        0.62431    0.65260    0.58504    1.000
    N29      N        0.58145    0.65320    0.53882    1.000
    N30      N        0.61706    0.50850    0.55629    1.000
    N31      N        0.61128    0.40430    0.39532    1.000
    N32      N        0.76942    0.60270    0.21891    1.000
    N33      N        0.95921    0.41340    0.39366    1.000
    N34      N        0.74124    0.47600    0.32189    1.000
    N35      N        0.82603    0.47820    0.32010    1.000
    N36      N        0.78573    0.43850    0.36601    1.000
    Zn10     Zn       0.95374    0.64077    0.91225    1.000
    Zn11     Zn       0.73999    0.31742    0.68032    1.000
    Zn12     Zn       0.97623    0.88046    0.08617    1.000
    I19      I        0.94572    0.82342    0.91591    1.000
    I20      I        0.01783    0.55274    0.88234    1.000
    I21      I        0.82878    0.31257    0.66751    1.000
    I22      I        0.69487    0.15909    0.68819    1.000
    I23      I        0.92807    0.79394    0.12625    1.000
    I24      I        0.99372    0.80463    0.03447    1.000
    C109     C        0.81690    0.64610    0.12572    1.000
    H73      H        0.81620    0.71460    0.12490    1.000
    C110     C        0.84050    0.59620    0.10270    1.000
    H74      H        0.85500    0.63000    0.08640    1.000
    C111     C        0.79760    0.50550    0.14968    1.000
    H75      H        0.78240    0.47320    0.16610    1.000
    C112     C        0.82050    0.45090    0.12810    1.000
    H76      H        0.82150    0.38250    0.12970    1.000
    C113     C        0.84214    0.49710    0.10412    1.000
    C114     C        0.86805    0.44180    0.08049    1.000
    C115     C        0.92657    0.06550    0.10032    1.000
    H77      H        0.92390    0.03650    0.11970    1.000
    C116     C        0.91080    0.15860    0.09667    1.000
    H78      H        0.89720    0.19280    0.11320    1.000
    C117     C        0.94947    0.05550    0.05045    1.000
    H79      H        0.96300    0.01960    0.03430    1.000
    C118     C        0.93450    0.14840    0.04502    1.000
    H80      H        0.93760    0.17580    0.02540    1.000
    C119     C        0.91488    0.20180    0.06860    1.000
    C120     C        0.90161    0.30410    0.06391    1.000
    C121     C        0.95716    0.48730    0.95883    1.000
    H81      H        0.97180    0.45190    0.94290    1.000
    C122     C        0.94512    0.43960    0.98498    1.000
    H82      H        0.95140    0.37240    0.98700    1.000
    C123     C        0.93080    0.63220    0.97806    1.000
    H83      H        0.92680    0.70000    0.97590    1.000
    C124     C        0.91730    0.59000    0.00523    1.000
    H84      H        0.90420    0.62770    0.02120    1.000
    C125     C        0.92367    0.49070    0.00841    1.000
    C126     C        0.90763    0.44010    0.03613    1.000
    C127     C        0.84732    0.60780    0.91011    1.000
    H85      H        0.84850    0.62830    0.93060    1.000
    C128     C        0.80287    0.59200    0.89714    1.000
    H86      H        0.77420    0.60120    0.90840    1.000
    C129     C        0.88673    0.56350    0.86655    1.000
    H87      H        0.91580    0.55120    0.85610    1.000
    C130     C        0.84411    0.54820    0.85200    1.000
    H88      H        0.84390    0.52790    0.83150    1.000
    C131     C        0.80151    0.56240    0.86711    1.000
    C132     C        0.75544    0.54840    0.85114    1.000
    C133     C        0.76830    0.43490    0.73332    1.000
    H89      H        0.79860    0.43490    0.72350    1.000
    C134     C        0.76508    0.47350    0.76198    1.000
    H90      H        0.79280    0.49770    0.77190    1.000
    C135     C        0.68730    0.40200    0.73231    1.000
    H91      H        0.66020    0.37690    0.72190    1.000
    C136     C        0.68090    0.44210    0.76069    1.000
    H92      H        0.64990    0.44590    0.76940    1.000
    C137     C        0.72074    0.47670    0.77621    1.000
    C138     C        0.71733    0.51090    0.80770    1.000
    C139     C        0.54280    0.56830    0.86415    1.000
    H93      H        0.51370    0.56490    0.85310    1.000
    C140     C        0.58540    0.55400    0.84889    1.000
    H94      H        0.58540    0.54080    0.82780    1.000
    C141     C        0.58189    0.58970    0.90909    1.000
    H95      H        0.58080    0.60150    0.93020    1.000
    C142     C        0.62620    0.57650    0.89533    1.000
    H96      H        0.65480    0.57940    0.90690    1.000
    C143     C        0.62822    0.55910    0.86493    1.000
    C144     C        0.67486    0.54760    0.84955    1.000
    N37      N        0.79565    0.60200    0.14861    1.000
    N38      N        0.94568    0.01340    0.07765    1.000
    N39      N        0.94898    0.58290    0.95488    1.000
    N40      N        0.87569    0.34740    0.08504    1.000
    N41      N        0.91855    0.34680    0.03882    1.000
    N42      N        0.88294    0.49150    0.05629    1.000
    N43      N        0.88872    0.59570    0.89532    1.000
    N44      N        0.73058    0.39730    0.71891    1.000
    N45      N        0.54079    0.58660    0.89366    1.000
    N46      N        0.75876    0.52400    0.82189    1.000
    N47      N        0.67397    0.52180    0.82010    1.000
    N48      N        0.71427    0.56150    0.86601    1.000
    Zn13     Zn       0.54626    0.14077    0.91225    1.000
    Zn14     Zn       0.76001    0.81742    0.68032    1.000
    Zn15     Zn       0.52377    0.38046    0.08617    1.000
    I25      I        0.55428    0.32342    0.91591    1.000
    I26      I        0.48217    0.05274    0.88234    1.000
    I27      I        0.67122    0.81257    0.66751    1.000
    I28      I        0.80513    0.65909    0.68819    1.000
    I29      I        0.57193    0.29394    0.12625    1.000
    I30      I        0.50628    0.30463    0.03447    1.000
    C145     C        0.68310    0.14610    0.12572    1.000
    H97      H        0.68380    0.21460    0.12490    1.000
    C146     C        0.65950    0.09620    0.10270    1.000
    H98      H        0.64500    0.13000    0.08640    1.000
    C147     C        0.70240    0.00550    0.14968    1.000
    H99      H        0.71760    0.97320    0.16610    1.000
    C148     C        0.67950    0.95090    0.12810    1.000
    H100     H        0.67850    0.88250    0.12970    1.000
    C149     C        0.65786    0.99710    0.10412    1.000
    C150     C        0.63195    0.94180    0.08049    1.000
    C151     C        0.57343    0.56550    0.10032    1.000
    H101     H        0.57610    0.53650    0.11970    1.000
    C152     C        0.58920    0.65860    0.09667    1.000
    H102     H        0.60280    0.69280    0.11320    1.000
    C153     C        0.55053    0.55550    0.05045    1.000
    H103     H        0.53700    0.51960    0.03430    1.000
    C154     C        0.56550    0.64840    0.04502    1.000
    H104     H        0.56240    0.67580    0.02540    1.000
    C155     C        0.58512    0.70180    0.06860    1.000
    C156     C        0.59839    0.80410    0.06391    1.000
    C157     C        0.54284    0.98730    0.95883    1.000
    H105     H        0.52820    0.95190    0.94290    1.000
    C158     C        0.55488    0.93960    0.98498    1.000
    H106     H        0.54860    0.87240    0.98700    1.000
    C159     C        0.56920    0.13220    0.97806    1.000
    H107     H        0.57320    0.20000    0.97590    1.000
    C160     C        0.58270    0.09000    0.00523    1.000
    H108     H        0.59580    0.12770    0.02120    1.000
    C161     C        0.57633    0.99070    0.00841    1.000
    C162     C        0.59237    0.94010    0.03613    1.000
    C163     C        0.65268    0.10780    0.91011    1.000
    H109     H        0.65150    0.12830    0.93060    1.000
    C164     C        0.69713    0.09200    0.89714    1.000
    H110     H        0.72580    0.10120    0.90840    1.000
    C165     C        0.61327    0.06350    0.86655    1.000
    H111     H        0.58420    0.05120    0.85610    1.000
    C166     C        0.65589    0.04820    0.85200    1.000
    H112     H        0.65610    0.02790    0.83150    1.000
    C167     C        0.69849    0.06240    0.86711    1.000
    C168     C        0.74456    0.04840    0.85114    1.000
    C169     C        0.73170    0.93490    0.73332    1.000
    H113     H        0.70140    0.93490    0.72350    1.000
    C170     C        0.73492    0.97350    0.76198    1.000
    H114     H        0.70720    0.99770    0.77190    1.000
    C171     C        0.81270    0.90200    0.73231    1.000
    H115     H        0.83980    0.87690    0.72190    1.000
    C172     C        0.81910    0.94210    0.76069    1.000
    H116     H        0.85010    0.94590    0.76940    1.000
    C173     C        0.77926    0.97670    0.77621    1.000
    C174     C        0.78267    0.01090    0.80770    1.000
    C175     C        0.95720    0.06830    0.86415    1.000
    H117     H        0.98630    0.06490    0.85310    1.000
    C176     C        0.91460    0.05400    0.84889    1.000
    H118     H        0.91460    0.04080    0.82780    1.000
    C177     C        0.91811    0.08970    0.90909    1.000
    H119     H        0.91920    0.10150    0.93020    1.000
    C178     C        0.87380    0.07650    0.89533    1.000
    H120     H        0.84520    0.07940    0.90690    1.000
    C179     C        0.87178    0.05910    0.86493    1.000
    C180     C        0.82514    0.04760    0.84955    1.000
    N49      N        0.70435    0.10200    0.14861    1.000
    N50      N        0.55432    0.51340    0.07765    1.000
    N51      N        0.55102    0.08290    0.95488    1.000
    N52      N        0.62431    0.84740    0.08504    1.000
    N53      N        0.58145    0.84680    0.03882    1.000
    N54      N        0.61706    0.99150    0.05629    1.000
    N55      N        0.61128    0.09570    0.89532    1.000
    N56      N        0.76942    0.89730    0.71891    1.000
    N57      N        0.95921    0.08660    0.89366    1.000
    N58      N        0.74124    0.02400    0.82189    1.000
    N59      N        0.82603    0.02180    0.82010    1.000
    N60      N        0.78573    0.06150    0.86601    1.000
    Zn16     Zn       0.95374    0.85923    0.41225    1.000
    Zn17     Zn       0.73999    0.18258    0.18032    1.000
    Zn18     Zn       0.97623    0.61954    0.58617    1.000
    I31      I        0.94572    0.67658    0.41591    1.000
    I32      I        0.01783    0.94726    0.38234    1.000
    I33      I        0.82878    0.18743    0.16751    1.000
    I34      I        0.69487    0.34091    0.18819    1.000
    I35      I        0.92807    0.70606    0.62625    1.000
    I36      I        0.99372    0.69537    0.53447    1.000
    C181     C        0.81690    0.85390    0.62572    1.000
    H121     H        0.81620    0.78540    0.62490    1.000
    C182     C        0.84050    0.90380    0.60270    1.000
    H122     H        0.85500    0.87000    0.58640    1.000
    C183     C        0.79760    0.99450    0.64968    1.000
    H123     H        0.78240    0.02680    0.66610    1.000
    C184     C        0.82050    0.04910    0.62810    1.000
    H124     H        0.82150    0.11750    0.62970    1.000
    C185     C        0.84214    0.00290    0.60412    1.000
    C186     C        0.86805    0.05820    0.58049    1.000
    C187     C        0.92657    0.43450    0.60032    1.000
    H125     H        0.92390    0.46350    0.61970    1.000
    C188     C        0.91080    0.34140    0.59667    1.000
    H126     H        0.89720    0.30720    0.61320    1.000
    C189     C        0.94947    0.44450    0.55045    1.000
    H127     H        0.96300    0.48040    0.53430    1.000
    C190     C        0.93450    0.35160    0.54502    1.000
    H128     H        0.93760    0.32420    0.52540    1.000
    C191     C        0.91488    0.29820    0.56860    1.000
    C192     C        0.90161    0.19590    0.56391    1.000
    C193     C        0.95716    0.01270    0.45883    1.000
    H129     H        0.97180    0.04810    0.44290    1.000
    C194     C        0.94512    0.06040    0.48498    1.000
    H130     H        0.95140    0.12760    0.48700    1.000
    C195     C        0.93080    0.86780    0.47806    1.000
    H131     H        0.92680    0.80000    0.47590    1.000
    C196     C        0.91730    0.91000    0.50523    1.000
    H132     H        0.90420    0.87230    0.52120    1.000
    C197     C        0.92367    0.00930    0.50841    1.000
    C198     C        0.90763    0.05990    0.53613    1.000
    C199     C        0.84732    0.89220    0.41011    1.000
    H133     H        0.84850    0.87170    0.43060    1.000
    C200     C        0.80287    0.90800    0.39714    1.000
    H134     H        0.77420    0.89880    0.40840    1.000
    C201     C        0.88673    0.93650    0.36655    1.000
    H135     H        0.91580    0.94880    0.35610    1.000
    C202     C        0.84411    0.95180    0.35200    1.000
    H136     H        0.84390    0.97210    0.33150    1.000
    C203     C        0.80151    0.93760    0.36711    1.000
    C204     C        0.75544    0.95160    0.35114    1.000
    C205     C        0.76830    0.06510    0.23332    1.000
    H137     H        0.79860    0.06510    0.22350    1.000
    C206     C        0.76508    0.02650    0.26198    1.000
    H138     H        0.79280    0.00230    0.27190    1.000
    C207     C        0.68730    0.09800    0.23231    1.000
    H139     H        0.66020    0.12310    0.22190    1.000
    C208     C        0.68090    0.05790    0.26069    1.000
    H140     H        0.64990    0.05410    0.26940    1.000
    C209     C        0.72074    0.02330    0.27621    1.000
    C210     C        0.71733    0.98910    0.30770    1.000
    C211     C        0.54280    0.93170    0.36415    1.000
    H141     H        0.51370    0.93510    0.35310    1.000
    C212     C        0.58540    0.94600    0.34889    1.000
    H142     H        0.58540    0.95920    0.32780    1.000
    C213     C        0.58189    0.91030    0.40909    1.000
    H143     H        0.58080    0.89850    0.43020    1.000
    C214     C        0.62620    0.92350    0.39533    1.000
    H144     H        0.65480    0.92060    0.40690    1.000
    C215     C        0.62822    0.94090    0.36493    1.000
    C216     C        0.67486    0.95240    0.34955    1.000
    N61      N        0.79565    0.89800    0.64861    1.000
    N62      N        0.94568    0.48660    0.57765    1.000
    N63      N        0.94898    0.91710    0.45488    1.000
    N64      N        0.87569    0.15260    0.58504    1.000
    N65      N        0.91855    0.15320    0.53882    1.000
    N66      N        0.88294    0.00850    0.55629    1.000
    N67      N        0.88872    0.90430    0.39532    1.000
    N68      N        0.73058    0.10270    0.21891    1.000
    N69      N        0.54079    0.91340    0.39366    1.000
    N70      N        0.75876    0.97600    0.32189    1.000
    N71      N        0.67397    0.97820    0.32010    1.000
    N72      N        0.71427    0.93850    0.36601    1.000
    Zn19     Zn       0.45374    0.64077    0.58775    1.000
    Zn20     Zn       0.23999    0.31742    0.81968    1.000
    Zn21     Zn       0.47623    0.88046    0.41383    1.000
    I37      I        0.44572    0.82342    0.58409    1.000
    I38      I        0.51783    0.55274    0.61766    1.000
    I39      I        0.32878    0.31257    0.83249    1.000
    I40      I        0.19487    0.15909    0.81181    1.000
    I41      I        0.42807    0.79394    0.37375    1.000
    I42      I        0.49372    0.80463    0.46553    1.000
    C217     C        0.31690    0.64610    0.37428    1.000
    H145     H        0.31620    0.71460    0.37510    1.000
    C218     C        0.34050    0.59620    0.39730    1.000
    H146     H        0.35500    0.63000    0.41360    1.000
    C219     C        0.29760    0.50550    0.35032    1.000
    H147     H        0.28240    0.47320    0.33390    1.000
    C220     C        0.32050    0.45090    0.37190    1.000
    H148     H        0.32150    0.38250    0.37030    1.000
    C221     C        0.34214    0.49710    0.39588    1.000
    C222     C        0.36805    0.44180    0.41951    1.000
    C223     C        0.42657    0.06550    0.39968    1.000
    H149     H        0.42390    0.03650    0.38030    1.000
    C224     C        0.41080    0.15860    0.40333    1.000
    H150     H        0.39720    0.19280    0.38680    1.000
    C225     C        0.44947    0.05550    0.44955    1.000
    H151     H        0.46300    0.01960    0.46570    1.000
    C226     C        0.43450    0.14840    0.45498    1.000
    H152     H        0.43760    0.17580    0.47460    1.000
    C227     C        0.41488    0.20180    0.43140    1.000
    C228     C        0.40161    0.30410    0.43609    1.000
    C229     C        0.45716    0.48730    0.54117    1.000
    H153     H        0.47180    0.45190    0.55710    1.000
    C230     C        0.44512    0.43960    0.51502    1.000
    H154     H        0.45140    0.37240    0.51300    1.000
    C231     C        0.43080    0.63220    0.52194    1.000
    H155     H        0.42680    0.70000    0.52410    1.000
    C232     C        0.41730    0.59000    0.49477    1.000
    H156     H        0.40420    0.62770    0.47880    1.000
    C233     C        0.42367    0.49070    0.49159    1.000
    C234     C        0.40763    0.44010    0.46387    1.000
    C235     C        0.34732    0.60780    0.58989    1.000
    H157     H        0.34850    0.62830    0.56940    1.000
    C236     C        0.30287    0.59200    0.60286    1.000
    H158     H        0.27420    0.60120    0.59160    1.000
    C237     C        0.38673    0.56350    0.63345    1.000
    H159     H        0.41580    0.55120    0.64390    1.000
    C238     C        0.34411    0.54820    0.64800    1.000
    H160     H        0.34390    0.52790    0.66850    1.000
    C239     C        0.30151    0.56240    0.63289    1.000
    C240     C        0.25544    0.54840    0.64886    1.000
    C241     C        0.26830    0.43490    0.76668    1.000
    H161     H        0.29860    0.43490    0.77650    1.000
    C242     C        0.26508    0.47350    0.73802    1.000
    H162     H        0.29280    0.49770    0.72810    1.000
    C243     C        0.18730    0.40200    0.76769    1.000
    H163     H        0.16020    0.37690    0.77810    1.000
    C244     C        0.18090    0.44210    0.73931    1.000
    H164     H        0.14990    0.44590    0.73060    1.000
    C245     C        0.22074    0.47670    0.72379    1.000
    C246     C        0.21733    0.51090    0.69230    1.000
    C247     C        0.04280    0.56830    0.63585    1.000
    H165     H        0.01370    0.56490    0.64690    1.000
    C248     C        0.08540    0.55400    0.65111    1.000
    H166     H        0.08540    0.54080    0.67220    1.000
    C249     C        0.08189    0.58970    0.59091    1.000
    H167     H        0.08080    0.60150    0.56980    1.000
    C250     C        0.12620    0.57650    0.60467    1.000
    H168     H        0.15480    0.57940    0.59310    1.000
    C251     C        0.12822    0.55910    0.63507    1.000
    C252     C        0.17486    0.54760    0.65045    1.000
    N73      N        0.29565    0.60200    0.35139    1.000
    N74      N        0.44568    0.01340    0.42235    1.000
    N75      N        0.44898    0.58290    0.54512    1.000
    N76      N        0.37569    0.34740    0.41496    1.000
    N77      N        0.41855    0.34680    0.46118    1.000
    N78      N        0.38294    0.49150    0.44371    1.000
    N79      N        0.38872    0.59570    0.60468    1.000
    N80      N        0.23058    0.39730    0.78109    1.000
    N81      N        0.04079    0.58660    0.60634    1.000
    N82      N        0.25876    0.52400    0.67811    1.000
    N83      N        0.17397    0.52180    0.67990    1.000
    N84      N        0.21427    0.56150    0.63399    1.000
    Zn22     Zn       0.04626    0.35923    0.08775    1.000
    Zn23     Zn       0.26001    0.68258    0.31968    1.000
    Zn24     Zn       0.02377    0.11954    0.91383    1.000
    I43      I        0.05428    0.17658    0.08409    1.000
    I44      I        0.98217    0.44726    0.11766    1.000
    I45      I        0.17122    0.68743    0.33249    1.000
    I46      I        0.30513    0.84091    0.31181    1.000
    I47      I        0.07193    0.20606    0.87375    1.000
    I48      I        0.00628    0.19537    0.96553    1.000
    C253     C        0.18310    0.35390    0.87428    1.000
    H169     H        0.18380    0.28540    0.87510    1.000
    C254     C        0.15950    0.40380    0.89730    1.000
    H170     H        0.14500    0.37000    0.91360    1.000
    C255     C        0.20240    0.49450    0.85032    1.000
    H171     H        0.21760    0.52680    0.83390    1.000
    C256     C        0.17950    0.54910    0.87190    1.000
    H172     H        0.17850    0.61750    0.87030    1.000
    C257     C        0.15786    0.50290    0.89588    1.000
    C258     C        0.13195    0.55820    0.91951    1.000
    C259     C        0.07343    0.93450    0.89968    1.000
    H173     H        0.07610    0.96350    0.88030    1.000
    C260     C        0.08920    0.84140    0.90333    1.000
    H174     H        0.10280    0.80720    0.88680    1.000
    C261     C        0.05053    0.94450    0.94955    1.000
    H175     H        0.03700    0.98040    0.96570    1.000
    C262     C        0.06550    0.85160    0.95498    1.000
    H176     H        0.06240    0.82420    0.97460    1.000
    C263     C        0.08512    0.79820    0.93140    1.000
    C264     C        0.09839    0.69590    0.93609    1.000
    C265     C        0.04284    0.51270    0.04117    1.000
    H177     H        0.02820    0.54810    0.05710    1.000
    C266     C        0.05488    0.56040    0.01502    1.000
    H178     H        0.04860    0.62760    0.01300    1.000
    C267     C        0.06920    0.36780    0.02194    1.000
    H179     H        0.07320    0.30000    0.02410    1.000
    C268     C        0.08270    0.41000    0.99477    1.000
    H180     H        0.09580    0.37230    0.97880    1.000
    C269     C        0.07633    0.50930    0.99159    1.000
    C270     C        0.09237    0.55990    0.96387    1.000
    C271     C        0.15268    0.39220    0.08989    1.000
    H181     H        0.15150    0.37170    0.06940    1.000
    C272     C        0.19713    0.40800    0.10286    1.000
    H182     H        0.22580    0.39880    0.09160    1.000
    C273     C        0.11327    0.43650    0.13345    1.000
    H183     H        0.08420    0.44880    0.14390    1.000
    C274     C        0.15589    0.45180    0.14800    1.000
    H184     H        0.15610    0.47210    0.16850    1.000
    C275     C        0.19849    0.43760    0.13289    1.000
    C276     C        0.24456    0.45160    0.14886    1.000
    C277     C        0.23170    0.56510    0.26668    1.000
    H185     H        0.20140    0.56510    0.27650    1.000
    C278     C        0.23492    0.52650    0.23802    1.000
    H186     H        0.20720    0.50230    0.22810    1.000
    C279     C        0.31270    0.59800    0.26769    1.000
    H187     H        0.33980    0.62310    0.27810    1.000
    C280     C        0.31910    0.55790    0.23931    1.000
    H188     H        0.35010    0.55410    0.23060    1.000
    C281     C        0.27926    0.52330    0.22379    1.000
    C282     C        0.28267    0.48910    0.19230    1.000
    C283     C        0.45720    0.43170    0.13585    1.000
    H189     H        0.48630    0.43510    0.14690    1.000
    C284     C        0.41460    0.44600    0.15111    1.000
    H190     H        0.41460    0.45920    0.17220    1.000
    C285     C        0.41811    0.41030    0.09091    1.000
    H191     H        0.41920    0.39850    0.06980    1.000
    C286     C        0.37380    0.42350    0.10467    1.000
    H192     H        0.34520    0.42060    0.09310    1.000
    C287     C        0.37178    0.44090    0.13507    1.000
    C288     C        0.32514    0.45240    0.15045    1.000
    N85      N        0.20435    0.39800    0.85139    1.000
    N86      N        0.05432    0.98660    0.92235    1.000
    N87      N        0.05102    0.41710    0.04512    1.000
    N88      N        0.12431    0.65260    0.91496    1.000
    N89      N        0.08145    0.65320    0.96118    1.000
    N90      N        0.11706    0.50850    0.94371    1.000
    N91      N        0.11128    0.40430    0.10468    1.000
    N92      N        0.26942    0.60270    0.28109    1.000
    N93      N        0.45921    0.41340    0.10634    1.000
    N94      N        0.24124    0.47600    0.17811    1.000
    N95      N        0.32603    0.47820    0.17990    1.000
    N96      N        0.28573    0.43850    0.13399    1.000
