# CIF file generated by openbabel 3.1.0, see https://openbabel.org
data_I
_chemical_name_common 'image0'
_cell_length_a 20.3177
_cell_length_b 20.3177
_cell_length_c 20.3177
_cell_angle_alpha 90
_cell_angle_beta 90
_cell_angle_gamma 90
_space_group_name_H-M_alt 'P 1'
_space_group_name_Hall 'P 1'
loop_
    _symmetry_equiv_pos_as_xyz
    x,y,z
loop_
    _atom_site_label
    _atom_site_type_symbol
    _atom_site_fract_x
    _atom_site_fract_y
    _atom_site_fract_z
    _atom_site_occupancy
    O1       O        0.12970    0.81460    0.24410    1.000
    O2       O        0.04740    0.88390    0.21560    1.000
    N1       N        0.99700    0.65590    0.00890    1.000
    H1       H        0.96080    0.67000    0.98960    1.000
    N2       N        0.99080    0.57760    0.93000    1.000
    C1       C        0.07790    0.83150    0.20900    1.000
    C2       C        0.05760    0.78380    0.15480    1.000
    C3       C        0.01180    0.79920    0.11680    1.000
    H2       H        0.99110    0.84090    0.12110    1.000
    C4       C        0.99060    0.75490    0.06750    1.000
    H3       H        0.95710    0.76860    0.03790    1.000
    C5       C        0.01670    0.69290    0.06090    1.000
    C6       C        0.07330    0.67980    0.09980    1.000
    H4       H        0.09820    0.64090    0.09270    1.000
    C7       C        0.09210    0.72410    0.14840    1.000
    H5       H        0.12780    0.71420    0.17690    1.000
    C8       C        0.02420    0.59880    0.98020    1.000
    O3       O        0.37030    0.18540    0.74410    1.000
    O4       O        0.45260    0.11610    0.71560    1.000
    N3       N        0.50300    0.34410    0.50890    1.000
    H6       H        0.53920    0.33000    0.48960    1.000
    N4       N        0.50920    0.42240    0.43000    1.000
    C9       C        0.42210    0.16850    0.70900    1.000
    C10      C        0.44240    0.21620    0.65480    1.000
    C11      C        0.48820    0.20080    0.61680    1.000
    H7       H        0.50890    0.15910    0.62110    1.000
    C12      C        0.50940    0.24510    0.56750    1.000
    H8       H        0.54290    0.23140    0.53790    1.000
    C13      C        0.48330    0.30710    0.56090    1.000
    C14      C        0.42670    0.32020    0.59980    1.000
    H9       H        0.40180    0.35910    0.59270    1.000
    C15      C        0.40790    0.27590    0.64840    1.000
    H10      H        0.37220    0.28580    0.67690    1.000
    C16      C        0.47580    0.40120    0.48020    1.000
    O5       O        0.87030    0.31460    0.25590    1.000
    O6       O        0.95260    0.38390    0.28440    1.000
    N5       N        0.00300    0.15590    0.49110    1.000
    H11      H        0.03920    0.17000    0.51040    1.000
    N6       N        0.00920    0.07760    0.57000    1.000
    C17      C        0.92210    0.33150    0.29100    1.000
    C18      C        0.94240    0.28380    0.34520    1.000
    C19      C        0.98820    0.29920    0.38320    1.000
    H12      H        0.00890    0.34090    0.37890    1.000
    C20      C        0.00940    0.25490    0.43250    1.000
    H13      H        0.04290    0.26860    0.46210    1.000
    C21      C        0.98330    0.19290    0.43910    1.000
    C22      C        0.92670    0.17980    0.40020    1.000
    H14      H        0.90180    0.14090    0.40730    1.000
    C23      C        0.90790    0.22410    0.35160    1.000
    H15      H        0.87220    0.21420    0.32310    1.000
    C24      C        0.97580    0.09880    0.51980    1.000
    O7       O        0.62970    0.68540    0.75590    1.000
    O8       O        0.54740    0.61610    0.78440    1.000
    N7       N        0.49700    0.84410    0.99110    1.000
    H16      H        0.46080    0.83000    0.01040    1.000
    N8       N        0.49080    0.92240    0.07000    1.000
    C25      C        0.57790    0.66850    0.79100    1.000
    C26      C        0.55760    0.71620    0.84520    1.000
    C27      C        0.51180    0.70080    0.88320    1.000
    H17      H        0.49110    0.65910    0.87890    1.000
    C28      C        0.49060    0.74510    0.93250    1.000
    H18      H        0.45710    0.73140    0.96210    1.000
    C29      C        0.51670    0.80710    0.93910    1.000
    C30      C        0.57330    0.82020    0.90020    1.000
    H19      H        0.59820    0.85910    0.90730    1.000
    C31      C        0.59210    0.77590    0.85160    1.000
    H20      H        0.62780    0.78580    0.82310    1.000
    C32      C        0.52420    0.90120    0.01980    1.000
    O9       O        0.24410    0.12970    0.81460    1.000
    O10      O        0.21560    0.04740    0.88390    1.000
    N9       N        0.00890    0.99700    0.65590    1.000
    H21      H        0.98960    0.96080    0.67000    1.000
    N10      N        0.93000    0.99080    0.57760    1.000
    C33      C        0.20900    0.07790    0.83150    1.000
    C34      C        0.15480    0.05760    0.78380    1.000
    C35      C        0.11680    0.01180    0.79920    1.000
    H22      H        0.12110    0.99110    0.84090    1.000
    C36      C        0.06750    0.99060    0.75490    1.000
    H23      H        0.03790    0.95710    0.76860    1.000
    C37      C        0.06090    0.01670    0.69290    1.000
    C38      C        0.09980    0.07330    0.67980    1.000
    H24      H        0.09270    0.09820    0.64090    1.000
    C39      C        0.14840    0.09210    0.72410    1.000
    H25      H        0.17690    0.12780    0.71420    1.000
    C40      C        0.98020    0.02420    0.59880    1.000
    O11      O        0.74410    0.37030    0.18540    1.000
    O12      O        0.71560    0.45260    0.11610    1.000
    N11      N        0.50890    0.50300    0.34410    1.000
    H26      H        0.48960    0.53920    0.33000    1.000
    N12      N        0.43000    0.50920    0.42240    1.000
    C41      C        0.70900    0.42210    0.16850    1.000
    C42      C        0.65480    0.44240    0.21620    1.000
    C43      C        0.61680    0.48820    0.20080    1.000
    H27      H        0.62110    0.50890    0.15910    1.000
    C44      C        0.56750    0.50940    0.24510    1.000
    H28      H        0.53790    0.54290    0.23140    1.000
    C45      C        0.56090    0.48330    0.30710    1.000
    C46      C        0.59980    0.42670    0.32020    1.000
    H29      H        0.59270    0.40180    0.35910    1.000
    C47      C        0.64840    0.40790    0.27590    1.000
    H30      H        0.67690    0.37220    0.28580    1.000
    C48      C        0.48020    0.47580    0.40120    1.000
    O13      O        0.25590    0.87030    0.31460    1.000
    O14      O        0.28440    0.95260    0.38390    1.000
    N13      N        0.49110    0.00300    0.15590    1.000
    H31      H        0.51040    0.03920    0.17000    1.000
    N14      N        0.57000    0.00920    0.07760    1.000
    C49      C        0.29100    0.92210    0.33150    1.000
    C50      C        0.34520    0.94240    0.28380    1.000
    C51      C        0.38320    0.98820    0.29920    1.000
    H32      H        0.37890    0.00890    0.34090    1.000
    C52      C        0.43250    0.00940    0.25490    1.000
    H33      H        0.46210    0.04290    0.26860    1.000
    C53      C        0.43910    0.98330    0.19290    1.000
    C54      C        0.40020    0.92670    0.17980    1.000
    H34      H        0.40730    0.90180    0.14090    1.000
    C55      C        0.35160    0.90790    0.22410    1.000
    H35      H        0.32310    0.87220    0.21420    1.000
    C56      C        0.51980    0.97580    0.09880    1.000
    O15      O        0.75590    0.62970    0.68540    1.000
    O16      O        0.78440    0.54740    0.61610    1.000
    N15      N        0.99110    0.49700    0.84410    1.000
    H36      H        0.01040    0.46080    0.83000    1.000
    N16      N        0.07000    0.49080    0.92240    1.000
    C57      C        0.79100    0.57790    0.66850    1.000
    C58      C        0.84520    0.55760    0.71620    1.000
    C59      C        0.88320    0.51180    0.70080    1.000
    H37      H        0.87890    0.49110    0.65910    1.000
    C60      C        0.93250    0.49060    0.74510    1.000
    H38      H        0.96210    0.45710    0.73140    1.000
    C61      C        0.93910    0.51670    0.80710    1.000
    C62      C        0.90020    0.57330    0.82020    1.000
    H39      H        0.90730    0.59820    0.85910    1.000
    C63      C        0.85160    0.59210    0.77590    1.000
    H40      H        0.82310    0.62780    0.78580    1.000
    C64      C        0.01980    0.52420    0.90120    1.000
    O17      O        0.81460    0.24410    0.12970    1.000
    O18      O        0.88390    0.21560    0.04740    1.000
    N17      N        0.65590    0.00890    0.99700    1.000
    H41      H        0.67000    0.98960    0.96080    1.000
    N18      N        0.57760    0.93000    0.99080    1.000
    C65      C        0.83150    0.20900    0.07790    1.000
    C66      C        0.78380    0.15480    0.05760    1.000
    C67      C        0.79920    0.11680    0.01180    1.000
    H42      H        0.84090    0.12110    0.99110    1.000
    C68      C        0.75490    0.06750    0.99060    1.000
    H43      H        0.76860    0.03790    0.95710    1.000
    C69      C        0.69290    0.06090    0.01670    1.000
    C70      C        0.67980    0.09980    0.07330    1.000
    H44      H        0.64090    0.09270    0.09820    1.000
    C71      C        0.72410    0.14840    0.09210    1.000
    H45      H        0.71420    0.17690    0.12780    1.000
    C72      C        0.59880    0.98020    0.02420    1.000
    O19      O        0.18540    0.74410    0.37030    1.000
    O20      O        0.11610    0.71560    0.45260    1.000
    N19      N        0.34410    0.50890    0.50300    1.000
    H46      H        0.33000    0.48960    0.53920    1.000
    N20      N        0.42240    0.43000    0.50920    1.000
    C73      C        0.16850    0.70900    0.42210    1.000
    C74      C        0.21620    0.65480    0.44240    1.000
    C75      C        0.20080    0.61680    0.48820    1.000
    H47      H        0.15910    0.62110    0.50890    1.000
    C76      C        0.24510    0.56750    0.50940    1.000
    H48      H        0.23140    0.53790    0.54290    1.000
    C77      C        0.30710    0.56090    0.48330    1.000
    C78      C        0.32020    0.59980    0.42670    1.000
    H49      H        0.35910    0.59270    0.40180    1.000
    C79      C        0.27590    0.64840    0.40790    1.000
    H50      H        0.28580    0.67690    0.37220    1.000
    C80      C        0.40120    0.48020    0.47580    1.000
    O21      O        0.31460    0.25590    0.87030    1.000
    O22      O        0.38390    0.28440    0.95260    1.000
    N21      N        0.15590    0.49110    0.00300    1.000
    H51      H        0.17000    0.51040    0.03920    1.000
    N22      N        0.07760    0.57000    0.00920    1.000
    C81      C        0.33150    0.29100    0.92210    1.000
    C82      C        0.28380    0.34520    0.94240    1.000
    C83      C        0.29920    0.38320    0.98820    1.000
    H52      H        0.34090    0.37890    0.00890    1.000
    C84      C        0.25490    0.43250    0.00940    1.000
    H53      H        0.26860    0.46210    0.04290    1.000
    C85      C        0.19290    0.43910    0.98330    1.000
    C86      C        0.17980    0.40020    0.92670    1.000
    H54      H        0.14090    0.40730    0.90180    1.000
    C87      C        0.22410    0.35160    0.90790    1.000
    H55      H        0.21420    0.32310    0.87220    1.000
    C88      C        0.09880    0.51980    0.97580    1.000
    O23      O        0.68540    0.75590    0.62970    1.000
    O24      O        0.61610    0.78440    0.54740    1.000
    N23      N        0.84410    0.99110    0.49700    1.000
    H56      H        0.83000    0.01040    0.46080    1.000
    N24      N        0.92240    0.07000    0.49080    1.000
    C89      C        0.66850    0.79100    0.57790    1.000
    C90      C        0.71620    0.84520    0.55760    1.000
    C91      C        0.70080    0.88320    0.51180    1.000
    H57      H        0.65910    0.87890    0.49110    1.000
    C92      C        0.74510    0.93250    0.49060    1.000
    H58      H        0.73140    0.96210    0.45710    1.000
    C93      C        0.80710    0.93910    0.51670    1.000
    C94      C        0.82020    0.90020    0.57330    1.000
    H59      H        0.85910    0.90730    0.59820    1.000
    C95      C        0.77590    0.85160    0.59210    1.000
    H60      H        0.78580    0.82310    0.62780    1.000
    C96      C        0.90120    0.01980    0.52420    1.000
    Yb1      Yb       0.15627    0.84373    0.34373    1.000
    Yb2      Yb       0.34373    0.15627    0.84373    1.000
    Yb3      Yb       0.84373    0.34373    0.15627    1.000
    Yb4      Yb       0.65627    0.65627    0.65627    1.000
    O25      O        0.24190    0.62690    0.18080    1.000
    O26      O        0.21200    0.55010    0.11380    1.000
    N25      N        0.01260    0.49400    0.35160    1.000
    H61      H        0.99800    0.45440    0.34210    1.000
    N26      N        0.01240    0.57260    0.43050    1.000
    C97      C        0.20650    0.58040    0.16470    1.000
    C98      C        0.15940    0.55880    0.21570    1.000
    C99      C        0.15350    0.58700    0.27590    1.000
    H62      H        0.18320    0.62130    0.28720    1.000
    C100     C        0.10630    0.56860    0.32210    1.000
    H63      H        0.10510    0.58880    0.36420    1.000
    C101     C        0.06130    0.52060    0.30550    1.000
    C102     C        0.07040    0.48140    0.24900    1.000
    H64      H        0.04580    0.44200    0.24330    1.000
    C103     C        0.11400    0.50030    0.20370    1.000
    H65      H        0.11680    0.47700    0.16320    1.000
    C104     C        0.98790    0.52020    0.40430    1.000
    O27      O        0.25810    0.37310    0.68080    1.000
    O28      O        0.28800    0.44990    0.61380    1.000
    N27      N        0.48740    0.50600    0.85160    1.000
    H66      H        0.50200    0.54560    0.84210    1.000
    N28      N        0.48760    0.42740    0.93050    1.000
    C105     C        0.29350    0.41960    0.66470    1.000
    C106     C        0.34060    0.44120    0.71570    1.000
    C107     C        0.34650    0.41300    0.77590    1.000
    H67      H        0.31680    0.37870    0.78720    1.000
    C108     C        0.39370    0.43140    0.82210    1.000
    H68      H        0.39490    0.41120    0.86420    1.000
    C109     C        0.43870    0.47940    0.80550    1.000
    C110     C        0.42960    0.51860    0.74900    1.000
    H69      H        0.45420    0.55800    0.74330    1.000
    C111     C        0.38600    0.49970    0.70370    1.000
    H70      H        0.38320    0.52300    0.66320    1.000
    C112     C        0.51210    0.47980    0.90430    1.000
    O29      O        0.75810    0.12690    0.31920    1.000
    O30      O        0.78800    0.05010    0.38620    1.000
    N29      N        0.98740    0.99400    0.14840    1.000
    H71      H        0.00200    0.95440    0.15790    1.000
    N30      N        0.98760    0.07260    0.06950    1.000
    C113     C        0.79350    0.08040    0.33530    1.000
    C114     C        0.84060    0.05880    0.28430    1.000
    C115     C        0.84650    0.08700    0.22410    1.000
    H72      H        0.81680    0.12130    0.21280    1.000
    C116     C        0.89370    0.06860    0.17790    1.000
    H73      H        0.89490    0.08880    0.13580    1.000
    C117     C        0.93870    0.02060    0.19450    1.000
    C118     C        0.92960    0.98140    0.25100    1.000
    H74      H        0.95420    0.94200    0.25670    1.000
    C119     C        0.88600    0.00030    0.29630    1.000
    H75      H        0.88320    0.97700    0.33680    1.000
    C120     C        0.01210    0.02020    0.09570    1.000
    O31      O        0.74190    0.87310    0.81920    1.000
    O32      O        0.71200    0.94990    0.88620    1.000
    N31      N        0.51260    0.00600    0.64840    1.000
    H76      H        0.49800    0.04560    0.65790    1.000
    N32      N        0.51240    0.92740    0.56950    1.000
    C121     C        0.70650    0.91960    0.83530    1.000
    C122     C        0.65940    0.94120    0.78430    1.000
    C123     C        0.65350    0.91300    0.72410    1.000
    H77      H        0.68320    0.87870    0.71280    1.000
    C124     C        0.60630    0.93140    0.67790    1.000
    H78      H        0.60510    0.91120    0.63580    1.000
    C125     C        0.56130    0.97940    0.69450    1.000
    C126     C        0.57040    0.01860    0.75100    1.000
    H79      H        0.54580    0.05800    0.75670    1.000
    C127     C        0.61400    0.99970    0.79630    1.000
    H80      H        0.61680    0.02300    0.83680    1.000
    C128     C        0.48790    0.97980    0.59570    1.000
    O33      O        0.18080    0.24190    0.62690    1.000
    O34      O        0.11380    0.21200    0.55010    1.000
    N33      N        0.35160    0.01260    0.49400    1.000
    H81      H        0.34210    0.99800    0.45440    1.000
    N34      N        0.43050    0.01240    0.57260    1.000
    C129     C        0.16470    0.20650    0.58040    1.000
    C130     C        0.21570    0.15940    0.55880    1.000
    C131     C        0.27590    0.15350    0.58700    1.000
    H82      H        0.28720    0.18320    0.62130    1.000
    C132     C        0.32210    0.10630    0.56860    1.000
    H83      H        0.36420    0.10510    0.58880    1.000
    C133     C        0.30550    0.06130    0.52060    1.000
    C134     C        0.24900    0.07040    0.48140    1.000
    H84      H        0.24330    0.04580    0.44200    1.000
    C135     C        0.20370    0.11400    0.50030    1.000
    H85      H        0.16320    0.11680    0.47700    1.000
    C136     C        0.40430    0.98790    0.52020    1.000
    O35      O        0.68080    0.25810    0.37310    1.000
    O36      O        0.61380    0.28800    0.44990    1.000
    N35      N        0.85160    0.48740    0.50600    1.000
    H86      H        0.84210    0.50200    0.54560    1.000
    N36      N        0.93050    0.48760    0.42740    1.000
    C137     C        0.66470    0.29350    0.41960    1.000
    C138     C        0.71570    0.34060    0.44120    1.000
    C139     C        0.77590    0.34650    0.41300    1.000
    H87      H        0.78720    0.31680    0.37870    1.000
    C140     C        0.82210    0.39370    0.43140    1.000
    H88      H        0.86420    0.39490    0.41120    1.000
    C141     C        0.80550    0.43870    0.47940    1.000
    C142     C        0.74900    0.42960    0.51860    1.000
    H89      H        0.74330    0.45420    0.55800    1.000
    C143     C        0.70370    0.38600    0.49970    1.000
    H90      H        0.66320    0.38320    0.52300    1.000
    C144     C        0.90430    0.51210    0.47980    1.000
    O37      O        0.31920    0.75810    0.12690    1.000
    O38      O        0.38620    0.78800    0.05010    1.000
    N37      N        0.14840    0.98740    0.99400    1.000
    H91      H        0.15790    0.00200    0.95440    1.000
    N38      N        0.06950    0.98760    0.07260    1.000
    C145     C        0.33530    0.79350    0.08040    1.000
    C146     C        0.28430    0.84060    0.05880    1.000
    C147     C        0.22410    0.84650    0.08700    1.000
    H92      H        0.21280    0.81680    0.12130    1.000
    C148     C        0.17790    0.89370    0.06860    1.000
    H93      H        0.13580    0.89490    0.08880    1.000
    C149     C        0.19450    0.93870    0.02060    1.000
    C150     C        0.25100    0.92960    0.98140    1.000
    H94      H        0.25670    0.95420    0.94200    1.000
    C151     C        0.29630    0.88600    0.00030    1.000
    H95      H        0.33680    0.88320    0.97700    1.000
    C152     C        0.09570    0.01210    0.02020    1.000
    O39      O        0.81920    0.74190    0.87310    1.000
    O40      O        0.88620    0.71200    0.94990    1.000
    N39      N        0.64840    0.51260    0.00600    1.000
    H96      H        0.65790    0.49800    0.04560    1.000
    N40      N        0.56950    0.51240    0.92740    1.000
    C153     C        0.83530    0.70650    0.91960    1.000
    C154     C        0.78430    0.65940    0.94120    1.000
    C155     C        0.72410    0.65350    0.91300    1.000
    H97      H        0.71280    0.68320    0.87870    1.000
    C156     C        0.67790    0.60630    0.93140    1.000
    H98      H        0.63580    0.60510    0.91120    1.000
    C157     C        0.69450    0.56130    0.97940    1.000
    C158     C        0.75100    0.57040    0.01860    1.000
    H99      H        0.75670    0.54580    0.05800    1.000
    C159     C        0.79630    0.61400    0.99970    1.000
    H100     H        0.83680    0.61680    0.02300    1.000
    C160     C        0.59570    0.48790    0.97980    1.000
    O41      O        0.62690    0.18080    0.24190    1.000
    O42      O        0.55010    0.11380    0.21200    1.000
    N41      N        0.49400    0.35160    0.01260    1.000
    H101     H        0.45440    0.34210    0.99800    1.000
    N42      N        0.57260    0.43050    0.01240    1.000
    C161     C        0.58040    0.16470    0.20650    1.000
    C162     C        0.55880    0.21570    0.15940    1.000
    C163     C        0.58700    0.27590    0.15350    1.000
    H102     H        0.62130    0.28720    0.18320    1.000
    C164     C        0.56860    0.32210    0.10630    1.000
    H103     H        0.58880    0.36420    0.10510    1.000
    C165     C        0.52060    0.30550    0.06130    1.000
    C166     C        0.48140    0.24900    0.07040    1.000
    H104     H        0.44200    0.24330    0.04580    1.000
    C167     C        0.50030    0.20370    0.11400    1.000
    H105     H        0.47700    0.16320    0.11680    1.000
    C168     C        0.52020    0.40430    0.98790    1.000
    O43      O        0.37310    0.68080    0.25810    1.000
    O44      O        0.44990    0.61380    0.28800    1.000
    N43      N        0.50600    0.85160    0.48740    1.000
    H106     H        0.54560    0.84210    0.50200    1.000
    N44      N        0.42740    0.93050    0.48760    1.000
    C169     C        0.41960    0.66470    0.29350    1.000
    C170     C        0.44120    0.71570    0.34060    1.000
    C171     C        0.41300    0.77590    0.34650    1.000
    H107     H        0.37870    0.78720    0.31680    1.000
    C172     C        0.43140    0.82210    0.39370    1.000
    H108     H        0.41120    0.86420    0.39490    1.000
    C173     C        0.47940    0.80550    0.43870    1.000
    C174     C        0.51860    0.74900    0.42960    1.000
    H109     H        0.55800    0.74330    0.45420    1.000
    C175     C        0.49970    0.70370    0.38600    1.000
    H110     H        0.52300    0.66320    0.38320    1.000
    C176     C        0.47980    0.90430    0.51210    1.000
    O45      O        0.12690    0.31920    0.75810    1.000
    O46      O        0.05010    0.38620    0.78800    1.000
    N45      N        0.99400    0.14840    0.98740    1.000
    H111     H        0.95440    0.15790    0.00200    1.000
    N46      N        0.07260    0.06950    0.98760    1.000
    C177     C        0.08040    0.33530    0.79350    1.000
    C178     C        0.05880    0.28430    0.84060    1.000
    C179     C        0.08700    0.22410    0.84650    1.000
    H112     H        0.12130    0.21280    0.81680    1.000
    C180     C        0.06860    0.17790    0.89370    1.000
    H113     H        0.08880    0.13580    0.89490    1.000
    C181     C        0.02060    0.19450    0.93870    1.000
    C182     C        0.98140    0.25100    0.92960    1.000
    H114     H        0.94200    0.25670    0.95420    1.000
    C183     C        0.00030    0.29630    0.88600    1.000
    H115     H        0.97700    0.33680    0.88320    1.000
    C184     C        0.02020    0.09570    0.01210    1.000
    O47      O        0.87310    0.81920    0.74190    1.000
    O48      O        0.94990    0.88620    0.71200    1.000
    N47      N        0.00600    0.64840    0.51260    1.000
    H116     H        0.04560    0.65790    0.49800    1.000
    N48      N        0.92740    0.56950    0.51240    1.000
    C185     C        0.91960    0.83530    0.70650    1.000
    C186     C        0.94120    0.78430    0.65940    1.000
    C187     C        0.91300    0.72410    0.65350    1.000
    H117     H        0.87870    0.71280    0.68320    1.000
    C188     C        0.93140    0.67790    0.60630    1.000
    H118     H        0.91120    0.63580    0.60510    1.000
    C189     C        0.97940    0.69450    0.56130    1.000
    C190     C        0.01860    0.75100    0.57040    1.000
    H119     H        0.05800    0.75670    0.54580    1.000
    C191     C        0.99970    0.79630    0.61400    1.000
    H120     H        0.02300    0.83680    0.61680    1.000
    C192     C        0.97980    0.59570    0.48790    1.000
    Yb5      Yb       0.34236    0.65764    0.15764    1.000
    Yb6      Yb       0.15764    0.34236    0.65764    1.000
    Yb7      Yb       0.65764    0.15764    0.34236    1.000
    Yb8      Yb       0.84236    0.84236    0.84236    1.000
