# CIF file generated by openbabel 3.1.0, see https://openbabel.org
data_I
_chemical_name_common 'image0'
_cell_length_a 22.2549
_cell_length_b 9.4868
_cell_length_c 15.7184
_cell_angle_alpha 90
_cell_angle_beta 91.476
_cell_angle_gamma 90
_space_group_name_H-M_alt 'P 1'
_space_group_name_Hall 'P 1'
loop_
    _symmetry_equiv_pos_as_xyz
    x,y,z
loop_
    _atom_site_label
    _atom_site_type_symbol
    _atom_site_fract_x
    _atom_site_fract_y
    _atom_site_fract_z
    _atom_site_occupancy
    Ag1      Ag       0.32965    0.18669    0.60842    1.000
    S1       S        0.28822    0.14533    0.41815    1.000
    N1       N        0.38349    0.23780    0.49531    1.000
    N2       N        0.44131    0.34560    0.35557    1.000
    N3       N        0.21553    0.16399    0.28465    1.000
    N4       N        0.28255    0.99120    0.18023    1.000
    C1       C        0.35895    0.22700    0.41622    1.000
    C2       C        0.38768    0.28300    0.34679    1.000
    H1       H        0.36930    0.27690    0.29310    1.000
    C3       C        0.46518    0.35440    0.43402    1.000
    H2       H        0.50230    0.39790    0.44210    1.000
    C4       C        0.43648    0.30100    0.50346    1.000
    H3       H        0.45460    0.30930    0.55720    1.000
    C5       C        0.26849    0.11070    0.31029    1.000
    C6       C        0.30153    0.02320    0.25929    1.000
    H4       H        0.33760    0.98580    0.28020    1.000
    C7       C        0.23048    0.04580    0.15353    1.000
    H5       H        0.21650    0.02720    0.09840    1.000
    C8       C        0.19676    0.12950    0.20592    1.000
    H6       H        0.15980    0.16290    0.18580    1.000
    Ag2      Ag       0.82965    0.68669    0.60842    1.000
    S2       S        0.78822    0.64533    0.41815    1.000
    N5       N        0.88349    0.73780    0.49531    1.000
    N6       N        0.94131    0.84560    0.35557    1.000
    N7       N        0.71553    0.66399    0.28465    1.000
    N8       N        0.78255    0.49120    0.18023    1.000
    C9       C        0.85895    0.72700    0.41622    1.000
    C10      C        0.88768    0.78300    0.34679    1.000
    H7       H        0.86930    0.77690    0.29310    1.000
    C11      C        0.96518    0.85440    0.43402    1.000
    H8       H        0.00230    0.89790    0.44210    1.000
    C12      C        0.93648    0.80100    0.50346    1.000
    H9       H        0.95460    0.80930    0.55720    1.000
    C13      C        0.76849    0.61070    0.31029    1.000
    C14      C        0.80153    0.52320    0.25929    1.000
    H10      H        0.83760    0.48580    0.28020    1.000
    C15      C        0.73048    0.54580    0.15353    1.000
    H11      H        0.71650    0.52720    0.09840    1.000
    C16      C        0.69676    0.62950    0.20592    1.000
    H12      H        0.65980    0.66290    0.18580    1.000
    Ag3      Ag       0.67035    0.18669    0.89158    1.000
    S3       S        0.71178    0.14533    0.08185    1.000
    N9       N        0.61651    0.23780    0.00469    1.000
    N10      N        0.55869    0.34560    0.14443    1.000
    N11      N        0.78447    0.16399    0.21535    1.000
    N12      N        0.71745    0.99120    0.31977    1.000
    C17      C        0.64105    0.22700    0.08378    1.000
    C18      C        0.61232    0.28300    0.15321    1.000
    H13      H        0.63070    0.27690    0.20690    1.000
    C19      C        0.53482    0.35440    0.06598    1.000
    H14      H        0.49770    0.39790    0.05790    1.000
    C20      C        0.56352    0.30100    0.99654    1.000
    H15      H        0.54540    0.30930    0.94280    1.000
    C21      C        0.73151    0.11070    0.18971    1.000
    C22      C        0.69847    0.02320    0.24071    1.000
    H16      H        0.66240    0.98580    0.21980    1.000
    C23      C        0.76952    0.04580    0.34647    1.000
    H17      H        0.78350    0.02720    0.40160    1.000
    C24      C        0.80324    0.12950    0.29408    1.000
    H18      H        0.84020    0.16290    0.31420    1.000
    Ag4      Ag       0.17035    0.68669    0.89158    1.000
    S4       S        0.21178    0.64533    0.08185    1.000
    N13      N        0.11651    0.73780    0.00469    1.000
    N14      N        0.05869    0.84560    0.14443    1.000
    N15      N        0.28447    0.66399    0.21535    1.000
    N16      N        0.21745    0.49120    0.31977    1.000
    C25      C        0.14105    0.72700    0.08378    1.000
    C26      C        0.11232    0.78300    0.15321    1.000
    H19      H        0.13070    0.77690    0.20690    1.000
    C27      C        0.03482    0.85440    0.06598    1.000
    H20      H        0.99770    0.89790    0.05790    1.000
    C28      C        0.06352    0.80100    0.99654    1.000
    H21      H        0.04540    0.80930    0.94280    1.000
    C29      C        0.23151    0.61070    0.18971    1.000
    C30      C        0.19847    0.52320    0.24071    1.000
    H22      H        0.16240    0.48580    0.21980    1.000
    C31      C        0.26952    0.54580    0.34647    1.000
    H23      H        0.28350    0.52720    0.40160    1.000
    C32      C        0.30324    0.62950    0.29408    1.000
    H24      H        0.34020    0.66290    0.31420    1.000
    Ag5      Ag       0.67035    0.81331    0.39158    1.000
    S5       S        0.71178    0.85467    0.58185    1.000
    N17      N        0.61651    0.76220    0.50469    1.000
    N18      N        0.55869    0.65440    0.64443    1.000
    N19      N        0.78447    0.83601    0.71535    1.000
    N20      N        0.71745    0.00880    0.81977    1.000
    C33      C        0.64105    0.77300    0.58378    1.000
    C34      C        0.61232    0.71700    0.65321    1.000
    H25      H        0.63070    0.72310    0.70690    1.000
    C35      C        0.53482    0.64560    0.56598    1.000
    H26      H        0.49770    0.60210    0.55790    1.000
    C36      C        0.56352    0.69900    0.49654    1.000
    H27      H        0.54540    0.69070    0.44280    1.000
    C37      C        0.73151    0.88930    0.68971    1.000
    C38      C        0.69847    0.97680    0.74071    1.000
    H28      H        0.66240    0.01420    0.71980    1.000
    C39      C        0.76952    0.95420    0.84647    1.000
    H29      H        0.78350    0.97280    0.90160    1.000
    C40      C        0.80324    0.87050    0.79408    1.000
    H30      H        0.84020    0.83710    0.81420    1.000
    Ag6      Ag       0.17035    0.31331    0.39158    1.000
    S6       S        0.21178    0.35467    0.58185    1.000
    N21      N        0.11651    0.26220    0.50469    1.000
    N22      N        0.05869    0.15440    0.64443    1.000
    N23      N        0.28447    0.33601    0.71535    1.000
    N24      N        0.21745    0.50880    0.81977    1.000
    C41      C        0.14105    0.27300    0.58378    1.000
    C42      C        0.11232    0.21700    0.65321    1.000
    H31      H        0.13070    0.22310    0.70690    1.000
    C43      C        0.03482    0.14560    0.56598    1.000
    H32      H        0.99770    0.10210    0.55790    1.000
    C44      C        0.06352    0.19900    0.49654    1.000
    H33      H        0.04540    0.19070    0.44280    1.000
    C45      C        0.23151    0.38930    0.68971    1.000
    C46      C        0.19847    0.47680    0.74071    1.000
    H34      H        0.16240    0.51420    0.71980    1.000
    C47      C        0.26952    0.45420    0.84647    1.000
    H35      H        0.28350    0.47280    0.90160    1.000
    C48      C        0.30324    0.37050    0.79408    1.000
    H36      H        0.34020    0.33710    0.81420    1.000
    Ag7      Ag       0.32965    0.81331    0.10842    1.000
    S7       S        0.28822    0.85467    0.91815    1.000
    N25      N        0.38349    0.76220    0.99531    1.000
    N26      N        0.44131    0.65440    0.85557    1.000
    N27      N        0.21553    0.83601    0.78465    1.000
    N28      N        0.28255    0.00880    0.68023    1.000
    C49      C        0.35895    0.77300    0.91622    1.000
    C50      C        0.38768    0.71700    0.84679    1.000
    H37      H        0.36930    0.72310    0.79310    1.000
    C51      C        0.46518    0.64560    0.93402    1.000
    H38      H        0.50230    0.60210    0.94210    1.000
    C52      C        0.43648    0.69900    0.00346    1.000
    H39      H        0.45460    0.69070    0.05720    1.000
    C53      C        0.26849    0.88930    0.81029    1.000
    C54      C        0.30153    0.97680    0.75929    1.000
    H40      H        0.33760    0.01420    0.78020    1.000
    C55      C        0.23048    0.95420    0.65353    1.000
    H41      H        0.21650    0.97280    0.59840    1.000
    C56      C        0.19676    0.87050    0.70592    1.000
    H42      H        0.15980    0.83710    0.68580    1.000
    Ag8      Ag       0.82965    0.31331    0.10842    1.000
    S8       S        0.78822    0.35467    0.91815    1.000
    N29      N        0.88349    0.26220    0.99531    1.000
    N30      N        0.94131    0.15440    0.85557    1.000
    N31      N        0.71553    0.33601    0.78465    1.000
    N32      N        0.78255    0.50880    0.68023    1.000
    C57      C        0.85895    0.27300    0.91622    1.000
    C58      C        0.88768    0.21700    0.84679    1.000
    H43      H        0.86930    0.22310    0.79310    1.000
    C59      C        0.96518    0.14560    0.93402    1.000
    H44      H        0.00230    0.10210    0.94210    1.000
    C60      C        0.93648    0.19900    0.00346    1.000
    H45      H        0.95460    0.19070    0.05720    1.000
    C61      C        0.76849    0.38930    0.81029    1.000
    C62      C        0.80153    0.47680    0.75929    1.000
    H46      H        0.83760    0.51420    0.78020    1.000
    C63      C        0.73048    0.45420    0.65353    1.000
    H47      H        0.71650    0.47280    0.59840    1.000
    C64      C        0.69676    0.37050    0.70592    1.000
    H48      H        0.65980    0.33710    0.68580    1.000
    Ag9      Ag       0.50000    0.42475    0.25000    1.000
    Ag10     Ag       0.00000    0.92475    0.25000    1.000
    Ag11     Ag       0.50000    0.57525    0.75000    1.000
    Ag12     Ag       0.00000    0.07525    0.75000    1.000
