# CIF file generated by openbabel 3.1.0, see https://openbabel.org
data_I
_chemical_name_common 'RACZEC_clean'
_cell_length_a 6.4018
_cell_length_b 8.9909
_cell_length_c 26.271
_cell_angle_alpha 90
_cell_angle_beta 90
_cell_angle_gamma 90
_space_group_name_H-M_alt 'P 1'
_space_group_name_Hall 'P 1'
loop_
    _symmetry_equiv_pos_as_xyz
    x,y,z
loop_
    _atom_site_label
    _atom_site_type_symbol
    _atom_site_fract_x
    _atom_site_fract_y
    _atom_site_fract_z
    _atom_site_occupancy
    Co1      Co       0.00000    0.00000    0.71477    1.000
    Co2      Co       0.50000    0.00000    0.78523    1.000
    Co3      Co       0.00000    0.00000    0.28523    1.000
    Co4      Co       0.50000    0.00000    0.21477    1.000
    H1       H        0.75440    0.87670    0.62650    1.000
    H2       H        0.74790    0.87200    0.53940    1.000
    H3       H        0.25440    0.12330    0.87350    1.000
    H4       H        0.24790    0.12800    0.96060    1.000
    H5       H        0.74560    0.87670    0.87350    1.000
    H6       H        0.75210    0.87200    0.96060    1.000
    H7       H        0.24560    0.12330    0.62650    1.000
    H8       H        0.25210    0.12800    0.53940    1.000
    H9       H        0.24560    0.12330    0.37350    1.000
    H10      H        0.25210    0.12800    0.46060    1.000
    H11      H        0.74560    0.87670    0.12650    1.000
    H12      H        0.75210    0.87200    0.03940    1.000
    H13      H        0.25440    0.12330    0.12650    1.000
    H14      H        0.24790    0.12800    0.03940    1.000
    H15      H        0.75440    0.87670    0.37350    1.000
    H16      H        0.74790    0.87200    0.46060    1.000
    C1       C        0.75630    0.49160    0.79401    1.000
    C2       C        0.76050    0.33720    0.79410    1.000
    C3       C        0.85720    0.92810    0.60870    1.000
    C4       C        0.85190    0.92500    0.55610    1.000
    C5       C        0.25630    0.50840    0.70599    1.000
    C6       C        0.26050    0.66280    0.70590    1.000
    C7       C        0.35720    0.07190    0.89130    1.000
    C8       C        0.35190    0.07500    0.94390    1.000
    C9       C        0.74370    0.49160    0.70599    1.000
    C10      C        0.73950    0.33720    0.70590    1.000
    C11      C        0.64280    0.92810    0.89130    1.000
    C12      C        0.64810    0.92500    0.94390    1.000
    C13      C        0.24370    0.50840    0.79401    1.000
    C14      C        0.23950    0.66280    0.79410    1.000
    C15      C        0.14280    0.07190    0.60870    1.000
    C16      C        0.14810    0.07500    0.55610    1.000
    C17      C        0.24370    0.50840    0.20599    1.000
    C18      C        0.23950    0.66280    0.20590    1.000
    C19      C        0.14280    0.07190    0.39130    1.000
    C20      C        0.14810    0.07500    0.44390    1.000
    C21      C        0.74370    0.49160    0.29401    1.000
    C22      C        0.73950    0.33720    0.29410    1.000
    C23      C        0.64280    0.92810    0.10870    1.000
    C24      C        0.64810    0.92500    0.05610    1.000
    C25      C        0.25630    0.50840    0.29401    1.000
    C26      C        0.26050    0.66280    0.29410    1.000
    C27      C        0.35720    0.07190    0.10870    1.000
    C28      C        0.35190    0.07500    0.05610    1.000
    C29      C        0.75630    0.49160    0.20599    1.000
    C30      C        0.76050    0.33720    0.20590    1.000
    C31      C        0.85720    0.92810    0.39130    1.000
    C32      C        0.85190    0.92500    0.44390    1.000
    C33      C        0.00000    0.00000    0.52870    1.000
    C34      C        0.50000    0.00000    0.97130    1.000
    C35      C        0.00000    0.00000    0.47130    1.000
    C36      C        0.50000    0.00000    0.02870    1.000
    C37      C        0.75000    0.74170    0.75000    1.000
    C38      C        0.75000    0.57310    0.75000    1.000
    C39      C        0.75000    0.25600    0.75000    1.000
    C40      C        0.25000    0.25830    0.75000    1.000
    C41      C        0.25000    0.42690    0.75000    1.000
    C42      C        0.25000    0.74400    0.75000    1.000
    C43      C        0.25000    0.25830    0.25000    1.000
    C44      C        0.25000    0.42690    0.25000    1.000
    C45      C        0.25000    0.74400    0.25000    1.000
    C46      C        0.75000    0.74170    0.25000    1.000
    C47      C        0.75000    0.57310    0.25000    1.000
    C48      C        0.75000    0.25600    0.25000    1.000
    N1       N        0.00000    0.00000    0.63500    1.000
    N2       N        0.50000    0.00000    0.86500    1.000
    N3       N        0.00000    0.00000    0.36500    1.000
    N4       N        0.50000    0.00000    0.13500    1.000
    O1       O        0.83620    0.80420    0.71308    1.000
    O2       O        0.33620    0.19580    0.78692    1.000
    O3       O        0.66380    0.80420    0.78692    1.000
    O4       O        0.16380    0.19580    0.71308    1.000
    O5       O        0.16380    0.19580    0.28692    1.000
    O6       O        0.66380    0.80420    0.21308    1.000
    O7       O        0.33620    0.19580    0.21308    1.000
    O8       O        0.83620    0.80420    0.28692    1.000
    O9       O        0.75000    0.10510    0.75000    1.000
    O10      O        0.25000    0.89490    0.75000    1.000
    O11      O        0.25000    0.89490    0.25000    1.000
    O12      O        0.75000    0.10510    0.25000    1.000
    F1       F        0.76600    0.55880    0.84013    1.000
    F2       F        0.77280    0.26540    0.83923    1.000
    F3       F        0.26600    0.44120    0.65987    1.000
    F4       F        0.27280    0.73460    0.66077    1.000
    F5       F        0.73400    0.55880    0.65987    1.000
    F6       F        0.72720    0.26540    0.66077    1.000
    F7       F        0.23400    0.44120    0.84013    1.000
    F8       F        0.22720    0.73460    0.83923    1.000
    F9       F        0.23400    0.44120    0.15987    1.000
    F10      F        0.22720    0.73460    0.16077    1.000
    F11      F        0.73400    0.55880    0.34013    1.000
    F12      F        0.72720    0.26540    0.33923    1.000
    F13      F        0.26600    0.44120    0.34013    1.000
    F14      F        0.27280    0.73460    0.33923    1.000
    F15      F        0.76600    0.55880    0.15987    1.000
    F16      F        0.77280    0.26540    0.16077    1.000
