# CIF file generated by openbabel 3.1.0, see https://openbabel.org
data_I
_chemical_name_common 'image0'
_cell_length_a 12.3989
_cell_length_b 33.418
_cell_length_c 12.9445
_cell_angle_alpha 90
_cell_angle_beta 98.312
_cell_angle_gamma 90
_space_group_name_H-M_alt 'P 1'
_space_group_name_Hall 'P 1'
loop_
    _symmetry_equiv_pos_as_xyz
    x,y,z
loop_
    _atom_site_label
    _atom_site_type_symbol
    _atom_site_fract_x
    _atom_site_fract_y
    _atom_site_fract_z
    _atom_site_occupancy
    Mn1      Mn       0.29943    0.43072    0.89393    1.000
    N1       N        0.11330    0.36790    0.80450    1.000
    O1       O        0.30510    0.42384    0.05560    1.000
    O2       O        0.44510    0.37835    0.91300    1.000
    O3       O        0.47320    0.44327    0.90710    1.000
    O4       O        0.22990    0.48671    0.85100    1.000
    O5       O        0.36950    0.52716    0.90310    1.000
    N2       N        0.29970    0.41176    0.72450    1.000
    O6       O        0.39700    0.47876    0.10830    1.000
    N3       N        0.23920    0.37956    0.68480    1.000
    N4       N        0.13760    0.40029    0.86920    1.000
    N5       N        0.93070    0.71468    0.68110    1.000
    C1       C        0.30060    0.42115    0.44160    1.000
    N6       N        0.86870    0.70622    0.75850    1.000
    C2       C        0.04350    0.41210    0.89810    1.000
    C3       C        0.84210    0.39061    0.86420    1.000
    C4       C        0.32840    0.43085    0.64230    1.000
    C5       C        0.34600    0.44780    0.12340    1.000
    C6       C        0.95820    0.38658    0.85170    1.000
    C7       C        0.33110    0.43887    0.23500    1.000
    C8       C        0.27300    0.52066    0.86470    1.000
    C9       C        0.62540    0.40069    0.89410    1.000
    C10      C        0.68480    0.43276    0.86550    1.000
    H1       H        0.65160    0.45840    0.85580    1.000
    C11      C        0.50880    0.40727    0.90710    1.000
    C12      C        0.20080    0.35151    0.75680    1.000
    H2       H        0.17570    0.32670    0.71880    1.000
    H3       H        0.26190    0.34440    0.81170    1.000
    C13      C        0.01440    0.68759    0.68090    1.000
    C14      C        0.09100    0.55224    0.79780    1.000
    H4       H        0.05960    0.52630    0.79110    1.000
    C15      C        0.79150    0.42787    0.85100    1.000
    H5       H        0.83150    0.45020    0.83160    1.000
    C16      C        0.20180    0.55669    0.83230    1.000
    C17      C        0.28530    0.41089    0.54950    1.000
    C18      C        0.00620    0.35888    0.79360    1.000
    C19      C        0.00250    0.66044    0.75720    1.000
    C20      C        0.02650    0.58579    0.77330    1.000
    H6       H        0.95060    0.58260    0.75040    1.000
    C21      C        0.07120    0.62405    0.78160    1.000
    C22      C        0.04030    0.44690    0.97140    1.000
    H7       H        0.02650    0.47160    0.93100    1.000
    H8       H        0.11040    0.44900    0.01710    1.000
    H9       H        0.98190    0.44270    0.01390    1.000
    C23      C        0.91310    0.67214    0.80560    1.000
    C24      C        0.67260    0.36292    0.90760    1.000
    H10      H        0.63120    0.34070    0.92500    1.000
    C25      C        0.78230    0.35824    0.89500    1.000
    H11      H        0.81640    0.33290    0.90730    1.000
    C26      C        0.22820    0.37856    0.57970    1.000
    C27      C        0.33060    0.39924    0.26890    1.000
    H12      H        0.33920    0.37820    0.22150    1.000
    C28      C        0.31570    0.46918    0.30450    1.000
    H13      H        0.31610    0.49630    0.28230    1.000
    C29      C        0.24790    0.59433    0.84040    1.000
    H14      H        0.32390    0.59730    0.86260    1.000
    C30      C        0.31790    0.39032    0.37020    1.000
    H15      H        0.32080    0.36320    0.39260    1.000
    C31      C        0.87440    0.65439    0.89870    1.000
    H16      H        0.80980    0.66890    0.91380    1.000
    H17      H        0.93210    0.65630    0.95880    1.000
    H18      H        0.85580    0.62620    0.88510    1.000
    C32      C        0.29980    0.46043    0.40640    1.000
    H19      H        0.28810    0.48160    0.45250    1.000
    C33      C        0.18230    0.62824    0.81590    1.000
    H20      H        0.21400    0.65420    0.82270    1.000
    C34      C        0.39700    0.46797    0.65570    1.000
    H21      H        0.43260    0.46990    0.72820    1.000
    H22      H        0.35060    0.49150    0.63860    1.000
    H23      H        0.45250    0.46680    0.60910    1.000
    C35      C        0.09420    0.69115    0.60610    1.000
    H24      H        0.14540    0.71290    0.62830    1.000
    H25      H        0.05550    0.69690    0.53630    1.000
    H26      H        0.13440    0.66600    0.60460    1.000
    C36      C        0.95680    0.32536    0.72660    1.000
    H27      H        0.98590    0.29980    0.75570    1.000
    H28      H        0.97450    0.32850    0.65570    1.000
    H29      H        0.87750    0.32570    0.72460    1.000
    C37      C        0.15950    0.34800    0.51680    1.000
    H30      H        0.08600    0.34820    0.53630    1.000
    H31      H        0.19200    0.32150    0.53050    1.000
    H32      H        0.15540    0.35430    0.44240    1.000
    Mn2      Mn       0.70057    0.93072    0.10607    1.000
    N7       N        0.88670    0.86790    0.19550    1.000
    O7       O        0.69490    0.92384    0.94440    1.000
    O8       O        0.55490    0.87835    0.08700    1.000
    O9       O        0.52680    0.94327    0.09290    1.000
    O10      O        0.77010    0.98671    0.14900    1.000
    O11      O        0.63050    0.02716    0.09690    1.000
    N8       N        0.70030    0.91176    0.27550    1.000
    O12      O        0.60300    0.97876    0.89170    1.000
    N9       N        0.76080    0.87956    0.31520    1.000
    N10      N        0.86240    0.90029    0.13080    1.000
    N11      N        0.06930    0.21468    0.31890    1.000
    C38      C        0.69940    0.92115    0.55840    1.000
    N12      N        0.13130    0.20622    0.24150    1.000
    C39      C        0.95650    0.91210    0.10190    1.000
    C40      C        0.15790    0.89061    0.13580    1.000
    C41      C        0.67160    0.93085    0.35770    1.000
    C42      C        0.65400    0.94780    0.87660    1.000
    C43      C        0.04180    0.88658    0.14830    1.000
    C44      C        0.66890    0.93887    0.76500    1.000
    C45      C        0.72700    0.02066    0.13530    1.000
    C46      C        0.37460    0.90069    0.10590    1.000
    C47      C        0.31520    0.93276    0.13450    1.000
    H33      H        0.34840    0.95840    0.14420    1.000
    C48      C        0.49120    0.90727    0.09290    1.000
    C49      C        0.79920    0.85151    0.24320    1.000
    H34      H        0.82430    0.82670    0.28120    1.000
    H35      H        0.73810    0.84440    0.18830    1.000
    C50      C        0.98560    0.18759    0.31910    1.000
    C51      C        0.90900    0.05224    0.20220    1.000
    H36      H        0.94040    0.02630    0.20890    1.000
    C52      C        0.20850    0.92787    0.14900    1.000
    H37      H        0.16850    0.95020    0.16840    1.000
    C53      C        0.79820    0.05669    0.16770    1.000
    C54      C        0.71470    0.91089    0.45050    1.000
    C55      C        0.99380    0.85888    0.20640    1.000
    C56      C        0.99750    0.16044    0.24280    1.000
    C57      C        0.97350    0.08579    0.22670    1.000
    H38      H        0.04940    0.08260    0.24960    1.000
    C58      C        0.92880    0.12405    0.21840    1.000
    C59      C        0.95970    0.94690    0.02860    1.000
    H39      H        0.97350    0.97160    0.06900    1.000
    H40      H        0.88960    0.94900    0.98290    1.000
    H41      H        0.01810    0.94270    0.98610    1.000
    C60      C        0.08690    0.17214    0.19440    1.000
    C61      C        0.32740    0.86292    0.09240    1.000
    H42      H        0.36880    0.84070    0.07500    1.000
    C62      C        0.21770    0.85824    0.10500    1.000
    H43      H        0.18360    0.83290    0.09270    1.000
    C63      C        0.77180    0.87856    0.42030    1.000
    C64      C        0.66940    0.89924    0.73110    1.000
    H44      H        0.66080    0.87820    0.77850    1.000
    C65      C        0.68430    0.96918    0.69550    1.000
    H45      H        0.68390    0.99630    0.71770    1.000
    C66      C        0.75210    0.09433    0.15960    1.000
    H46      H        0.67610    0.09730    0.13740    1.000
    C67      C        0.68210    0.89032    0.62980    1.000
    H47      H        0.67920    0.86320    0.60740    1.000
    C68      C        0.12560    0.15439    0.10130    1.000
    H48      H        0.19020    0.16890    0.08620    1.000
    H49      H        0.06790    0.15630    0.04120    1.000
    H50      H        0.14420    0.12620    0.11490    1.000
    C69      C        0.70020    0.96043    0.59360    1.000
    H51      H        0.71190    0.98160    0.54750    1.000
    C70      C        0.81770    0.12824    0.18410    1.000
    H52      H        0.78600    0.15420    0.17730    1.000
    C71      C        0.60300    0.96797    0.34430    1.000
    H53      H        0.56740    0.96990    0.27180    1.000
    H54      H        0.64940    0.99150    0.36140    1.000
    H55      H        0.54750    0.96680    0.39090    1.000
    C72      C        0.90580    0.19115    0.39390    1.000
    H56      H        0.85460    0.21290    0.37170    1.000
    H57      H        0.94450    0.19690    0.46370    1.000
    H58      H        0.86560    0.16600    0.39540    1.000
    C73      C        0.04320    0.82536    0.27340    1.000
    H59      H        0.01410    0.79980    0.24430    1.000
    H60      H        0.02550    0.82850    0.34430    1.000
    H61      H        0.12250    0.82570    0.27540    1.000
    C74      C        0.84050    0.84800    0.48320    1.000
    H62      H        0.91400    0.84820    0.46370    1.000
    H63      H        0.80800    0.82150    0.46950    1.000
    H64      H        0.84460    0.85430    0.55760    1.000
    Mn3      Mn       0.70057    0.56928    0.10607    1.000
    N13      N        0.88670    0.63210    0.19550    1.000
    O13      O        0.69490    0.57616    0.94440    1.000
    O14      O        0.55490    0.62165    0.08700    1.000
    O15      O        0.52680    0.55673    0.09290    1.000
    O16      O        0.77010    0.51329    0.14900    1.000
    O17      O        0.63050    0.47284    0.09690    1.000
    N14      N        0.70030    0.58824    0.27550    1.000
    O18      O        0.60300    0.52124    0.89170    1.000
    N15      N        0.76080    0.62044    0.31520    1.000
    N16      N        0.86240    0.59971    0.13080    1.000
    N17      N        0.06930    0.28532    0.31890    1.000
    C75      C        0.69940    0.57885    0.55840    1.000
    N18      N        0.13130    0.29378    0.24150    1.000
    C76      C        0.95650    0.58790    0.10190    1.000
    C77      C        0.15790    0.60939    0.13580    1.000
    C78      C        0.67160    0.56915    0.35770    1.000
    C79      C        0.65400    0.55220    0.87660    1.000
    C80      C        0.04180    0.61342    0.14830    1.000
    C81      C        0.66890    0.56113    0.76500    1.000
    C82      C        0.72700    0.47934    0.13530    1.000
    C83      C        0.37460    0.59931    0.10590    1.000
    C84      C        0.31520    0.56724    0.13450    1.000
    H65      H        0.34840    0.54160    0.14420    1.000
    C85      C        0.49120    0.59273    0.09290    1.000
    C86      C        0.79920    0.64849    0.24320    1.000
    H66      H        0.82430    0.67330    0.28120    1.000
    H67      H        0.73810    0.65560    0.18830    1.000
    C87      C        0.98560    0.31241    0.31910    1.000
    C88      C        0.90900    0.44776    0.20220    1.000
    H68      H        0.94040    0.47370    0.20890    1.000
    C89      C        0.20850    0.57213    0.14900    1.000
    H69      H        0.16850    0.54980    0.16840    1.000
    C90      C        0.79820    0.44331    0.16770    1.000
    C91      C        0.71470    0.58911    0.45050    1.000
    C92      C        0.99380    0.64112    0.20640    1.000
    C93      C        0.99750    0.33956    0.24280    1.000
    C94      C        0.97350    0.41421    0.22670    1.000
    H70      H        0.04940    0.41740    0.24960    1.000
    C95      C        0.92880    0.37595    0.21840    1.000
    C96      C        0.95970    0.55310    0.02860    1.000
    H71      H        0.97350    0.52840    0.06900    1.000
    H72      H        0.88960    0.55100    0.98290    1.000
    H73      H        0.01810    0.55730    0.98610    1.000
    C97      C        0.08690    0.32786    0.19440    1.000
    C98      C        0.32740    0.63708    0.09240    1.000
    H74      H        0.36880    0.65930    0.07500    1.000
    C99      C        0.21770    0.64176    0.10500    1.000
    H75      H        0.18360    0.66710    0.09270    1.000
    C100     C        0.77180    0.62144    0.42030    1.000
    C101     C        0.66940    0.60076    0.73110    1.000
    H76      H        0.66080    0.62180    0.77850    1.000
    C102     C        0.68430    0.53082    0.69550    1.000
    H77      H        0.68390    0.50370    0.71770    1.000
    C103     C        0.75210    0.40567    0.15960    1.000
    H78      H        0.67610    0.40270    0.13740    1.000
    C104     C        0.68210    0.60968    0.62980    1.000
    H79      H        0.67920    0.63680    0.60740    1.000
    C105     C        0.12560    0.34561    0.10130    1.000
    H80      H        0.19020    0.33110    0.08620    1.000
    H81      H        0.06790    0.34370    0.04120    1.000
    H82      H        0.14420    0.37380    0.11490    1.000
    C106     C        0.70020    0.53957    0.59360    1.000
    H83      H        0.71190    0.51840    0.54750    1.000
    C107     C        0.81770    0.37176    0.18410    1.000
    H84      H        0.78600    0.34580    0.17730    1.000
    C108     C        0.60300    0.53203    0.34430    1.000
    H85      H        0.56740    0.53010    0.27180    1.000
    H86      H        0.64940    0.50850    0.36140    1.000
    H87      H        0.54750    0.53320    0.39090    1.000
    C109     C        0.90580    0.30885    0.39390    1.000
    H88      H        0.85460    0.28710    0.37170    1.000
    H89      H        0.94450    0.30310    0.46370    1.000
    H90      H        0.86560    0.33400    0.39540    1.000
    C110     C        0.04320    0.67464    0.27340    1.000
    H91      H        0.01410    0.70020    0.24430    1.000
    H92      H        0.02550    0.67150    0.34430    1.000
    H93      H        0.12250    0.67430    0.27540    1.000
    C111     C        0.84050    0.65200    0.48320    1.000
    H94      H        0.91400    0.65180    0.46370    1.000
    H95      H        0.80800    0.67850    0.46950    1.000
    H96      H        0.84460    0.64570    0.55760    1.000
    Mn4      Mn       0.29943    0.06928    0.89393    1.000
    N19      N        0.11330    0.13210    0.80450    1.000
    O19      O        0.30510    0.07616    0.05560    1.000
    O20      O        0.44510    0.12165    0.91300    1.000
    O21      O        0.47320    0.05673    0.90710    1.000
    O22      O        0.22990    0.01329    0.85100    1.000
    O23      O        0.36950    0.97284    0.90310    1.000
    N20      N        0.29970    0.08824    0.72450    1.000
    O24      O        0.39700    0.02124    0.10830    1.000
    N21      N        0.23920    0.12044    0.68480    1.000
    N22      N        0.13760    0.09971    0.86920    1.000
    N23      N        0.93070    0.78532    0.68110    1.000
    C112     C        0.30060    0.07885    0.44160    1.000
    N24      N        0.86870    0.79378    0.75850    1.000
    C113     C        0.04350    0.08790    0.89810    1.000
    C114     C        0.84210    0.10939    0.86420    1.000
    C115     C        0.32840    0.06915    0.64230    1.000
    C116     C        0.34600    0.05220    0.12340    1.000
    C117     C        0.95820    0.11342    0.85170    1.000
    C118     C        0.33110    0.06113    0.23500    1.000
    C119     C        0.27300    0.97934    0.86470    1.000
    C120     C        0.62540    0.09931    0.89410    1.000
    C121     C        0.68480    0.06724    0.86550    1.000
    H97      H        0.65160    0.04160    0.85580    1.000
    C122     C        0.50880    0.09273    0.90710    1.000
    C123     C        0.20080    0.14849    0.75680    1.000
    H98      H        0.17570    0.17330    0.71880    1.000
    H99      H        0.26190    0.15560    0.81170    1.000
    C124     C        0.01440    0.81241    0.68090    1.000
    C125     C        0.09100    0.94776    0.79780    1.000
    H100     H        0.05960    0.97370    0.79110    1.000
    C126     C        0.79150    0.07213    0.85100    1.000
    H101     H        0.83150    0.04980    0.83160    1.000
    C127     C        0.20180    0.94331    0.83230    1.000
    C128     C        0.28530    0.08911    0.54950    1.000
    C129     C        0.00620    0.14112    0.79360    1.000
    C130     C        0.00250    0.83956    0.75720    1.000
    C131     C        0.02650    0.91421    0.77330    1.000
    H102     H        0.95060    0.91740    0.75040    1.000
    C132     C        0.07120    0.87595    0.78160    1.000
    C133     C        0.04030    0.05310    0.97140    1.000
    H103     H        0.02650    0.02840    0.93100    1.000
    H104     H        0.11040    0.05100    0.01710    1.000
    H105     H        0.98190    0.05730    0.01390    1.000
    C134     C        0.91310    0.82786    0.80560    1.000
    C135     C        0.67260    0.13708    0.90760    1.000
    H106     H        0.63120    0.15930    0.92500    1.000
    C136     C        0.78230    0.14176    0.89500    1.000
    H107     H        0.81640    0.16710    0.90730    1.000
    C137     C        0.22820    0.12144    0.57970    1.000
    C138     C        0.33060    0.10076    0.26890    1.000
    H108     H        0.33920    0.12180    0.22150    1.000
    C139     C        0.31570    0.03082    0.30450    1.000
    H109     H        0.31610    0.00370    0.28230    1.000
    C140     C        0.24790    0.90567    0.84040    1.000
    H110     H        0.32390    0.90270    0.86260    1.000
    C141     C        0.31790    0.10968    0.37020    1.000
    H111     H        0.32080    0.13680    0.39260    1.000
    C142     C        0.87440    0.84561    0.89870    1.000
    H112     H        0.80980    0.83110    0.91380    1.000
    H113     H        0.93210    0.84370    0.95880    1.000
    H114     H        0.85580    0.87380    0.88510    1.000
    C143     C        0.29980    0.03957    0.40640    1.000
    H115     H        0.28810    0.01840    0.45250    1.000
    C144     C        0.18230    0.87176    0.81590    1.000
    H116     H        0.21400    0.84580    0.82270    1.000
    C145     C        0.39700    0.03203    0.65570    1.000
    H117     H        0.43260    0.03010    0.72820    1.000
    H118     H        0.35060    0.00850    0.63860    1.000
    H119     H        0.45250    0.03320    0.60910    1.000
    C146     C        0.09420    0.80885    0.60610    1.000
    H120     H        0.14540    0.78710    0.62830    1.000
    H121     H        0.05550    0.80310    0.53630    1.000
    H122     H        0.13440    0.83400    0.60460    1.000
    C147     C        0.95680    0.17464    0.72660    1.000
    H123     H        0.98590    0.20020    0.75570    1.000
    H124     H        0.97450    0.17150    0.65570    1.000
    H125     H        0.87750    0.17430    0.72460    1.000
    C148     C        0.15950    0.15200    0.51680    1.000
    H126     H        0.08600    0.15180    0.53630    1.000
    H127     H        0.19200    0.17850    0.53050    1.000
    H128     H        0.15540    0.14570    0.44240    1.000
    Mn5      Mn       0.50000    0.50000    0.00000    1.000
    Mn6      Mn       0.50000    0.00000    0.00000    1.000
    Co1      Co       0.75474    0.75000    0.80074    1.000
    C149     C        0.90700    0.75000    0.62020    1.000
    H129     H        0.82900    0.75000    0.58990    1.000
    H130     H        0.95060    0.75000    0.56190    1.000
    Co2      Co       0.24526    0.25000    0.19926    1.000
    C150     C        0.09300    0.25000    0.37980    1.000
    H131     H        0.17100    0.25000    0.41010    1.000
    H132     H        0.04940    0.25000    0.43810    1.000
