# CIF file generated by openbabel 3.1.0, see https://openbabel.org
data_I
_chemical_name_common 'VEMMAC_clean'
_cell_length_a 11.5713
_cell_length_b 11.736
_cell_length_c 13.619
_cell_angle_alpha 92.869
_cell_angle_beta 114.443
_cell_angle_gamma 107.988
_space_group_name_H-M_alt 'P 1'
_space_group_name_Hall 'P 1'
loop_
    _symmetry_equiv_pos_as_xyz
    x,y,z
loop_
    _atom_site_label
    _atom_site_type_symbol
    _atom_site_fract_x
    _atom_site_fract_y
    _atom_site_fract_z
    _atom_site_occupancy
    Zn1      Zn       0.10439    0.23392    0.95361    1.000
    Zn2      Zn       0.89561    0.76608    0.04639    1.000
    Zn3      Zn       0.00000    0.50000    0.00000    1.000
    H1       H        0.67230    0.92930    0.02500    1.000
    H2       H        0.11950    0.37540    0.57500    1.000
    H3       H        0.35120    0.60230    0.43720    1.000
    H4       H        0.90770    0.57910    0.59440    1.000
    H5       H        0.51300    0.36830    0.37770    1.000
    H6       H        0.51980    0.18980    0.96140    1.000
    H7       H        0.32770    0.07070    0.97500    1.000
    H8       H        0.88050    0.62460    0.42500    1.000
    H9       H        0.64880    0.39770    0.56280    1.000
    H10      H        0.09230    0.42090    0.40560    1.000
    H11      H        0.48700    0.63170    0.62230    1.000
    H12      H        0.48020    0.81020    0.03860    1.000
    C1       C        0.73700    0.15080    0.98420    1.000
    C2       C        0.02720    0.44220    0.70810    1.000
    C3       C        0.32910    0.46130    0.26790    1.000
    C4       C        0.01370    0.47130    0.60140    1.000
    C5       C        0.41850    0.48300    0.38720    1.000
    C6       C        0.60320    0.95910    0.01460    1.000
    C7       C        0.07080    0.42530    0.54500    1.000
    C8       C        0.41140    0.56100    0.46220    1.000
    C9       C        0.94480    0.54640    0.55640    1.000
    C10      C        0.61460    0.07250    0.99120    1.000
    C11      C        0.50770    0.42190    0.42700    1.000
    C12      C        0.51290    0.11250    0.97710    1.000
    C13      C        0.26300    0.84920    0.01580    1.000
    C14      C        0.97280    0.55780    0.29190    1.000
    C15      C        0.67090    0.53870    0.73210    1.000
    C16      C        0.98630    0.52870    0.39860    1.000
    C17      C        0.58150    0.51700    0.61280    1.000
    C18      C        0.39680    0.04090    0.98540    1.000
    C19      C        0.92920    0.57470    0.45500    1.000
    C20      C        0.58860    0.43900    0.53780    1.000
    C21      C        0.05520    0.45360    0.44360    1.000
    C22      C        0.38540    0.92750    0.00880    1.000
    C23      C        0.49230    0.57810    0.57300    1.000
    C24      C        0.48710    0.88750    0.02290    1.000
    N1       N        0.30160    0.36370    0.19550    1.000
    N2       N        0.82970    0.11270    0.97220    1.000
    N3       N        0.05580    0.35320    0.84240    1.000
    N4       N        0.01410    0.51050    0.78100    1.000
    N5       N        0.21000    0.37420    0.09980    1.000
    N6       N        0.03260    0.45270    0.86450    1.000
    N7       N        0.92050    0.21290    0.97050    1.000
    N8       N        0.88470    0.30730    0.98070    1.000
    N9       N        0.18510    0.47480    0.11420    1.000
    N10      N        0.76910    0.27180    0.98930    1.000
    N11      N        0.05340    0.34400    0.74330    1.000
    N12      N        0.26010    0.53230    0.22020    1.000
    N13      N        0.69840    0.63630    0.80450    1.000
    N14      N        0.17030    0.88730    0.02780    1.000
    N15      N        0.94420    0.64680    0.15760    1.000
    N16      N        0.98590    0.48950    0.21900    1.000
    N17      N        0.79000    0.62580    0.90020    1.000
    N18      N        0.96740    0.54730    0.13550    1.000
    N19      N        0.07950    0.78710    0.02950    1.000
    N20      N        0.11530    0.69270    0.01930    1.000
    N21      N        0.81490    0.52520    0.88580    1.000
    N22      N        0.23090    0.72820    0.01070    1.000
    N23      N        0.94660    0.65600    0.25670    1.000
    N24      N        0.73990    0.46770    0.77980    1.000
