# CIF file generated by openbabel 3.1.0, see https://openbabel.org
data_I
_chemical_name_common 'image0'
_cell_length_a 10.458
_cell_length_b 12.274
_cell_length_c 12.401
_cell_angle_alpha 86.14
_cell_angle_beta 79.87
_cell_angle_gamma 76.58
_space_group_name_H-M_alt 'P 1'
_space_group_name_Hall 'P 1'
loop_
    _symmetry_equiv_pos_as_xyz
    x,y,z
loop_
    _atom_site_label
    _atom_site_type_symbol
    _atom_site_fract_x
    _atom_site_fract_y
    _atom_site_fract_z
    _atom_site_occupancy
    O1       O        0.13450    0.90120    0.97560    1.000
    La1      La       0.95736    0.12531    0.82907    1.000
    Zn1      Zn       0.18644    0.35029    0.19024    1.000
    O2       O        0.18640    0.26080    0.04680    1.000
    N1       N        0.17180    0.39400    0.35870    1.000
    C1       C        0.01170    0.44990    0.87270    1.000
    O3       O        0.03980    0.15790    0.44800    1.000
    O4       O        0.94680    0.28080    0.67600    1.000
    N2       N        0.60920    0.72570    0.82680    1.000
    O5       O        0.14770    0.17580    0.66690    1.000
    C2       C        0.12790    0.38190    0.90050    1.000
    C3       C        0.87740    0.41740    0.88760    1.000
    C4       C        0.14400    0.26750    0.95850    1.000
    C5       C        0.12700    0.32130    0.43400    1.000
    C6       C        0.08990    0.22530    0.38510    1.000
    C7       C        0.38620    0.74520    0.92250    1.000
    H1       H        0.32660    0.71890    0.97700    1.000
    C8       C        0.20730    0.48140    0.39290    1.000
    H2       H        0.23680    0.53230    0.34090    1.000
    N3       N        0.00710    0.55460    0.83170    1.000
    C9       C        0.34330    0.84000    0.86060    1.000
    C10      C        0.24190    0.42490    0.87950    1.000
    H3       H        0.32200    0.38170    0.89610    1.000
    C11      C        0.11720    0.59480    0.81320    1.000
    H4       H        0.11260    0.66760    0.78540    1.000
    C12      C        0.11700    0.33440    0.54550    1.000
    C13      C        0.20090    0.90580    0.88200    1.000
    C14      C        0.51860    0.69010    0.90270    1.000
    H5       H        0.54620    0.62530    0.94380    1.000
    C15      C        0.23730    0.53120    0.83410    1.000
    H6       H        0.31400    0.55920    0.81800    1.000
    C16      C        0.15840    0.42450    0.57870    1.000
    H7       H        0.15650    0.43410    0.65280    1.000
    C17      C        0.20220    0.49960    0.50170    1.000
    H8       H        0.22780    0.56150    0.52300    1.000
    C18      C        0.06640    0.25690    0.63410    1.000
    C19      C        0.43500    0.87490    0.78030    1.000
    H9       H        0.40860    0.93700    0.73550    1.000
    C20      C        0.56540    0.81760    0.76690    1.000
    H10      H        0.62660    0.84350    0.71360    1.000
    O6       O        0.77850    0.49470    0.87280    1.000
    O7       O        0.11220    0.22090    0.28240    1.000
    O8       O        0.12620    0.18480    0.91430    1.000
    O9       O        0.15790    0.96450    0.80320    1.000
    O10      O        0.87210    0.31910    0.91270    1.000
    O11      O        0.86550    0.09880    0.02440    1.000
    La2      La       0.04264    0.87469    0.17093    1.000
    Zn2      Zn       0.81356    0.64971    0.80976    1.000
    O12      O        0.81360    0.73920    0.95320    1.000
    N4       N        0.82820    0.60600    0.64130    1.000
    C21      C        0.98830    0.55010    0.12730    1.000
    O13      O        0.96020    0.84210    0.55200    1.000
    O14      O        0.05320    0.71920    0.32400    1.000
    N5       N        0.39080    0.27430    0.17320    1.000
    O15      O        0.85230    0.82420    0.33310    1.000
    C22      C        0.87210    0.61810    0.09950    1.000
    C23      C        0.12260    0.58260    0.11240    1.000
    C24      C        0.85600    0.73250    0.04150    1.000
    C25      C        0.87300    0.67870    0.56600    1.000
    C26      C        0.91010    0.77470    0.61490    1.000
    C27      C        0.61380    0.25480    0.07750    1.000
    H11      H        0.67340    0.28110    0.02300    1.000
    C28      C        0.79270    0.51860    0.60710    1.000
    H12      H        0.76320    0.46770    0.65910    1.000
    N6       N        0.99290    0.44540    0.16830    1.000
    C29      C        0.65670    0.16000    0.13940    1.000
    C30      C        0.75810    0.57510    0.12050    1.000
    H13      H        0.67800    0.61830    0.10390    1.000
    C31      C        0.88280    0.40520    0.18680    1.000
    H14      H        0.88740    0.33240    0.21460    1.000
    C32      C        0.88300    0.66560    0.45450    1.000
    C33      C        0.79910    0.09420    0.11800    1.000
    C34      C        0.48140    0.30990    0.09730    1.000
    H15      H        0.45380    0.37470    0.05620    1.000
    C35      C        0.76270    0.46880    0.16590    1.000
    H16      H        0.68600    0.44080    0.18200    1.000
    C36      C        0.84160    0.57550    0.42130    1.000
    H17      H        0.84350    0.56590    0.34720    1.000
    C37      C        0.79780    0.50040    0.49830    1.000
    H18      H        0.77220    0.43850    0.47700    1.000
    C38      C        0.93360    0.74310    0.36590    1.000
    C39      C        0.56500    0.12510    0.21970    1.000
    H19      H        0.59140    0.06300    0.26450    1.000
    C40      C        0.43460    0.18240    0.23310    1.000
    H20      H        0.37340    0.15650    0.28640    1.000
    O16      O        0.22150    0.50530    0.12720    1.000
    O17      O        0.88780    0.77910    0.71760    1.000
    O18      O        0.87380    0.81520    0.08570    1.000
    O19      O        0.84210    0.03550    0.19680    1.000
    O20      O        0.12790    0.68090    0.08730    1.000
