# CIF file generated by openbabel 3.1.0, see https://openbabel.org
data_I
_chemical_name_common 'image0'
_cell_length_a 13.0203
_cell_length_b 19.776
_cell_length_c 20.8274
_cell_angle_alpha 61.932
_cell_angle_beta 73.268
_cell_angle_gamma 80.162
_space_group_name_H-M_alt 'P 1'
_space_group_name_Hall 'P 1'
loop_
    _symmetry_equiv_pos_as_xyz
    x,y,z
loop_
    _atom_site_label
    _atom_site_type_symbol
    _atom_site_fract_x
    _atom_site_fract_y
    _atom_site_fract_z
    _atom_site_occupancy
    Mn1      Mn       0.91545    0.79765    0.09958    1.000
    Mn2      Mn       0.70661    0.70194    0.09620    1.000
    O1       O        0.87350    0.92184    0.02433    1.000
    O2       O        0.94190    0.67580    0.15728    1.000
    O3       O        0.12120    0.92579    0.96478    1.000
    O4       O        0.07000    0.80542    0.03162    1.000
    O5       O        0.84520    0.77133    0.01639    1.000
    O6       O        0.02000    0.94480    0.11012    1.000
    O7       O        0.79770    0.62015    0.16900    1.000
    O8       O        0.95750    0.82730    0.17248    1.000
    O9       O        0.75730    0.78800    0.16150    1.000
    O10      O        0.83450    0.68230    0.98387    1.000
    O11      O        0.23020    0.54860    0.36560    1.000
    H1       H        0.29570    0.54240    0.35620    1.000
    O12      O        0.25370    0.54480    0.46890    1.000
    O13      O        0.60580    0.76450    0.15360    1.000
    C1       C        0.12270    0.85860    0.97440    1.000
    C2       C        0.60440    0.84970    0.20540    1.000
    C3       C        0.18880    0.83830    0.91360    1.000
    C4       C        0.08590    0.31910    0.33420    1.000
    C5       C        0.03470    0.39580    0.29630    1.000
    C6       C        0.36160    0.76980    0.48930    1.000
    C7       C        0.18010    0.76780    0.91810    1.000
    H2       H        0.14290    0.72990    0.96260    1.000
    C8       C        0.08010    0.94670    0.66220    1.000
    C9       C        0.18380    0.17300    0.40500    1.000
    C10      C        0.32500    0.79190    0.72470    1.000
    C11      C        0.93770    0.54100    0.22230    1.000
    C12      C        0.29530    0.87680    0.78800    1.000
    H3       H        0.33550    0.91380    0.74450    1.000
    C13      C        0.54140    0.72320    0.51580    1.000
    C14      C        0.46110    0.80370    0.61390    1.000
    H4       H        0.52740    0.82130    0.58180    1.000
    C15      C        0.86630    0.63540    0.47010    1.000
    C16      C        0.88930    0.61890    0.17960    1.000
    C17      C        0.96030    0.86500    0.87110    1.000
    H5       H        0.95160    0.88010    0.90850    1.000
    C18      C        0.28330    0.80720    0.79090    1.000
    C19      C        0.21490    0.80950    0.39940    1.000
    C20      C        0.92220    0.79630    0.88880    1.000
    C21      C        0.39940    0.76450    0.59920    1.000
    C22      C        0.26600    0.75310    0.70820    1.000
    H6       H        0.19960    0.73540    0.74010    1.000
    C23      C        0.24880    0.89260    0.84860    1.000
    H7       H        0.25800    0.93980    0.84540    1.000
    C24      C        0.00280    0.88140    0.16630    1.000
    C25      C        0.07930    0.58080    0.44330    1.000
    C26      C        0.93460    0.77660    0.83120    1.000
    H8       H        0.90920    0.73050    0.84150    1.000
    C27      C        0.22540    0.75280    0.85800    1.000
    H9       H        0.21740    0.70500    0.86210    1.000
    C28      C        0.14680    0.83260    0.34540    1.000
    C29      C        0.02440    0.89460    0.74010    1.000
    C30      C        0.42390    0.81670    0.67620    1.000
    H10      H        0.46600    0.84260    0.68600    1.000
    C31      C        0.75360    0.66620    0.48460    1.000
    C32      C        0.18450    0.04770    0.51490    1.000
    C33      C        0.19460    0.30390    0.31040    1.000
    H11      H        0.23630    0.34280    0.27020    1.000
    C34      C        0.78810    0.94730    0.00260    1.000
    C35      C        0.01720    0.59540    0.39420    1.000
    H12      H        0.04640    0.58780    0.35160    1.000
    C36      C        0.03560    0.59310    0.50560    1.000
    H13      H        0.07690    0.58350    0.53900    1.000
    C37      C        0.65900    0.87900    0.23300    1.000
    H14      H        0.73210    0.86740    0.22920    1.000
    C38      C        0.03460    0.53360    0.23950    1.000
    H15      H        0.06840    0.57750    0.22680    1.000
    C39      C        0.19650    0.55560    0.42830    1.000
    C40      C        0.60770    0.92560    0.26650    1.000
    H16      H        0.64680    0.94360    0.28590    1.000
    C41      C        0.24250    0.23200    0.34520    1.000
    H17      H        0.31540    0.22360    0.32780    1.000
    C42      C        0.86490    0.74600    0.96800    1.000
    C43      C        0.08320    0.46270    0.27520    1.000
    H18      H        0.14930    0.45980    0.28530    1.000
    C44      C        0.45770    0.98460    0.37560    1.000
    H19      H        0.51590    0.95370    0.39250    1.000
    C45      C        0.91120    0.62160    0.40820    1.000
    H20      H        0.86940    0.63010    0.37540    1.000
    C46      C        0.65810    0.79770    0.17060    1.000
    C47      C        0.30590    0.06710    0.39380    1.000
    C48      C        0.04600    0.86790    0.23090    1.000
    C49      C        0.58840    0.67040    0.57290    1.000
    H21      H        0.54910    0.65270    0.62240    1.000
    C50      C        0.14280    0.98190    0.53010    1.000
    H22      H        0.14780    0.97000    0.49100    1.000
    C51      C        0.50060    0.94600    0.27190    1.000
    C52      C        0.01160    0.91200    0.79840    1.000
    H23      H        0.03860    0.95740    0.78860    1.000
    C53      C        0.70530    0.71860    0.42790    1.000
    H24      H        0.74390    0.73500    0.37830    1.000
    C54      C        0.39280    0.02130    0.41670    1.000
    H25      H        0.40850    0.01480    0.46010    1.000
    C55      C        0.29740    0.83640    0.47320    1.000
    H26      H        0.30260    0.86890    0.49290    1.000
    C56      C        0.69310    0.64350    0.55730    1.000
    H27      H        0.72370    0.60920    0.59670    1.000
    C57      C        0.11120    0.91970    0.22490    1.000
    H28      H        0.12280    0.96630    0.18210    1.000
    C58      C        0.30190    0.74000    0.64700    1.000
    H29      H        0.25950    0.71400    0.63750    1.000
    C59      C        0.22610    0.85590    0.42910    1.000
    H30      H        0.18470    0.90130    0.41930    1.000
    C60      C        0.07630    0.18760    0.43020    1.000
    H31      H        0.03550    0.14890    0.47160    1.000
    C61      C        0.43870    0.99250    0.31070    1.000
    C62      C        0.09280    0.93190    0.60260    1.000
    H32      H        0.06720    0.88680    0.61080    1.000
    C63      C        0.02800    0.25950    0.39450    1.000
    H33      H        0.95490    0.26760    0.41180    1.000
    C64      C        0.98470    0.82530    0.75820    1.000
    H34      H        0.99180    0.81110    0.72040    1.000
    C65      C        0.60090    0.74730    0.44280    1.000
    H35      H        0.57100    0.78290    0.40350    1.000
    C66      C        0.15910    0.90270    0.28190    1.000
    H36      H        0.20070    0.93900    0.27780    1.000
    C67      C        0.28690    0.07800    0.32770    1.000
    H37      H        0.22950    0.10990    0.31060    1.000
    C68      C        0.93610    0.40380    0.28080    1.000
    H38      H        0.90060    0.36000    0.29530    1.000
    C69      C        0.35340    0.04150    0.28610    1.000
    H39      H        0.34020    0.05030    0.24120    1.000
    C70      C        0.27480    0.74220    0.41740    1.000
    H40      H        0.26580    0.70900    0.39950    1.000
    C71      C        0.88830    0.47500    0.24430    1.000
    H41      H        0.82180    0.47810    0.23460    1.000
    C72      C        0.93150    0.61950    0.51830    1.000
    H42      H        0.90310    0.62710    0.56090    1.000
    C73      C        0.02340    0.80460    0.29720    1.000
    H43      H        0.97250    0.77220    0.30480    1.000
    C74      C        0.07290    0.78620    0.35410    1.000
    H44      H        0.05550    0.74180    0.39870    1.000
    C75      C        0.34910    0.72050    0.46150    1.000
    H45      H        0.38910    0.67450    0.47210    1.000
    C76      C        0.49800    0.86810    0.21070    1.000
    H46      H        0.45870    0.84830    0.19300    1.000
    C77      C        0.44740    0.91730    0.24310    1.000
    H47      H        0.37500    0.93070    0.24500    1.000
    C78      C        0.64480    0.02740    0.96740    1.000
    H48      H        0.66040    0.06970    0.91750    1.000
    H49      H        0.57890    0.03960    0.99700    1.000
    C79      C        0.12270    0.01410    0.64520    1.000
    H50      H        0.11620    0.02700    0.68370    1.000
    C80      C        0.63790    0.95250    0.96480    1.000
    H51      H        0.57960    0.92240    0.00430    1.000
    H52      H        0.62840    0.96190    0.91670    1.000
    C81      C        0.17500    0.06330    0.57310    1.000
    H53      H        0.20370    0.10750    0.56470    1.000
    N1       N        0.73240    0.01000    0.00250    1.000
    H54      H        0.74680    0.03690    0.02110    1.000
    N2       N        0.73920    0.91590    0.97610    1.000
    H55      H        0.76590    0.87770    0.96670    1.000
    N3       N        0.23470    0.09970    0.43990    1.000
    N4       N        0.43590    0.75180    0.53410    1.000
    Mn3      Mn       0.08455    0.20235    0.90042    1.000
    Mn4      Mn       0.29339    0.29806    0.90380    1.000
    O14      O        0.12650    0.07816    0.97567    1.000
    O15      O        0.05810    0.32420    0.84272    1.000
    O16      O        0.87880    0.07421    0.03522    1.000
    O17      O        0.93000    0.19458    0.96838    1.000
    O18      O        0.15480    0.22867    0.98361    1.000
    O19      O        0.98000    0.05520    0.88988    1.000
    O20      O        0.20230    0.37985    0.83100    1.000
    O21      O        0.04250    0.17270    0.82752    1.000
    O22      O        0.24270    0.21200    0.83850    1.000
    O23      O        0.16550    0.31770    0.01613    1.000
    O24      O        0.76980    0.45140    0.63440    1.000
    H56      H        0.70430    0.45760    0.64380    1.000
    O25      O        0.74630    0.45520    0.53110    1.000
    O26      O        0.39420    0.23550    0.84640    1.000
    C82      C        0.87730    0.14140    0.02560    1.000
    C83      C        0.39560    0.15030    0.79460    1.000
    C84      C        0.81120    0.16170    0.08640    1.000
    C85      C        0.91410    0.68090    0.66580    1.000
    C86      C        0.96530    0.60420    0.70370    1.000
    C87      C        0.63840    0.23020    0.51070    1.000
    C88      C        0.81990    0.23220    0.08190    1.000
    H57      H        0.85710    0.27010    0.03740    1.000
    C89      C        0.91990    0.05330    0.33780    1.000
    C90      C        0.81620    0.82700    0.59500    1.000
    C91      C        0.67500    0.20810    0.27530    1.000
    C92      C        0.06230    0.45900    0.77770    1.000
    C93      C        0.70470    0.12320    0.21200    1.000
    H58      H        0.66450    0.08620    0.25550    1.000
    C94      C        0.45860    0.27680    0.48420    1.000
    C95      C        0.53890    0.19630    0.38610    1.000
    H59      H        0.47260    0.17870    0.41820    1.000
    C96      C        0.13370    0.36460    0.52990    1.000
    C97      C        0.11070    0.38110    0.82040    1.000
    C98      C        0.03970    0.13500    0.12890    1.000
    H60      H        0.04840    0.11990    0.09150    1.000
    C99      C        0.71670    0.19280    0.20910    1.000
    C100     C        0.78510    0.19050    0.60060    1.000
    C101     C        0.07780    0.20370    0.11120    1.000
    C102     C        0.60060    0.23550    0.40080    1.000
    C103     C        0.73400    0.24690    0.29180    1.000
    H61      H        0.80040    0.26460    0.25990    1.000
    C104     C        0.75120    0.10740    0.15140    1.000
    H62      H        0.74200    0.06020    0.15460    1.000
    C105     C        0.99720    0.11860    0.83370    1.000
    C106     C        0.92070    0.41920    0.55670    1.000
    C107     C        0.06540    0.22340    0.16880    1.000
    H63      H        0.09080    0.26950    0.15850    1.000
    C108     C        0.77460    0.24720    0.14200    1.000
    H64      H        0.78260    0.29500    0.13790    1.000
    C109     C        0.85320    0.16740    0.65460    1.000
    C110     C        0.97560    0.10540    0.25990    1.000
    C111     C        0.57610    0.18330    0.32380    1.000
    H65      H        0.53400    0.15740    0.31400    1.000
    C112     C        0.24640    0.33380    0.51540    1.000
    C113     C        0.81550    0.95230    0.48510    1.000
    C114     C        0.80540    0.69610    0.68960    1.000
    H66      H        0.76370    0.65720    0.72980    1.000
    C115     C        0.21190    0.05270    0.99740    1.000
    C116     C        0.98280    0.40460    0.60580    1.000
    H67      H        0.95360    0.41220    0.64840    1.000
    C117     C        0.96440    0.40690    0.49440    1.000
    H68      H        0.92310    0.41650    0.46100    1.000
    C118     C        0.34100    0.12100    0.76700    1.000
    H69      H        0.26790    0.13260    0.77080    1.000
    C119     C        0.96540    0.46640    0.76050    1.000
    H70      H        0.93160    0.42250    0.77320    1.000
    C120     C        0.80350    0.44440    0.57170    1.000
    C121     C        0.39230    0.07440    0.73350    1.000
    H71      H        0.35320    0.05640    0.71410    1.000
    C122     C        0.75750    0.76800    0.65480    1.000
    H72      H        0.68460    0.77640    0.67220    1.000
    C123     C        0.13510    0.25400    0.03200    1.000
    C124     C        0.91680    0.53730    0.72480    1.000
    H73      H        0.85070    0.54020    0.71470    1.000
    C125     C        0.54230    0.01540    0.62440    1.000
    H74      H        0.48410    0.04630    0.60750    1.000
    C126     C        0.08880    0.37840    0.59180    1.000
    H75      H        0.13060    0.36990    0.62460    1.000
    C127     C        0.34190    0.20230    0.82940    1.000
    C128     C        0.69410    0.93290    0.60620    1.000
    C129     C        0.95400    0.13210    0.76910    1.000
    C130     C        0.41160    0.32960    0.42710    1.000
    H76      H        0.45090    0.34730    0.37760    1.000
    C131     C        0.85720    0.01810    0.46990    1.000
    H77      H        0.85220    0.03000    0.50900    1.000
    C132     C        0.49940    0.05400    0.72810    1.000
    C133     C        0.98840    0.08800    0.20160    1.000
    H78      H        0.96140    0.04260    0.21140    1.000
    C134     C        0.29470    0.28140    0.57210    1.000
    H79      H        0.25610    0.26500    0.62170    1.000
    C135     C        0.60720    0.97870    0.58330    1.000
    H80      H        0.59150    0.98520    0.53990    1.000
    C136     C        0.70260    0.16360    0.52680    1.000
    H81      H        0.69740    0.13110    0.50710    1.000
    C137     C        0.30690    0.35650    0.44270    1.000
    H82      H        0.27630    0.39080    0.40330    1.000
    C138     C        0.88880    0.08030    0.77510    1.000
    H83      H        0.87720    0.03370    0.81790    1.000
    C139     C        0.69810    0.26000    0.35300    1.000
    H84      H        0.74050    0.28600    0.36250    1.000
    C140     C        0.77390    0.14410    0.57090    1.000
    H85      H        0.81530    0.09870    0.58070    1.000
    C141     C        0.92370    0.81240    0.56980    1.000
    H86      H        0.96450    0.85110    0.52840    1.000
    C142     C        0.56130    0.00750    0.68930    1.000
    C143     C        0.90720    0.06810    0.39740    1.000
    H87      H        0.93280    0.11320    0.38920    1.000
    C144     C        0.97200    0.74050    0.60550    1.000
    H88      H        0.04510    0.73240    0.58820    1.000
    C145     C        0.01530    0.17470    0.24180    1.000
    H89      H        0.00820    0.18890    0.27960    1.000
    C146     C        0.39910    0.25270    0.55720    1.000
    H90      H        0.42900    0.21710    0.59650    1.000
    C147     C        0.84090    0.09730    0.71810    1.000
    H91      H        0.79930    0.06100    0.72220    1.000
    C148     C        0.71310    0.92200    0.67230    1.000
    H92      H        0.77050    0.89010    0.68940    1.000
    C149     C        0.06390    0.59620    0.71920    1.000
    H93      H        0.09940    0.64000    0.70470    1.000
    C150     C        0.64660    0.95850    0.71390    1.000
    H94      H        0.65980    0.94970    0.75880    1.000
    C151     C        0.72520    0.25780    0.58260    1.000
    H95      H        0.73420    0.29100    0.60050    1.000
    C152     C        0.11170    0.52500    0.75570    1.000
    H96      H        0.17820    0.52190    0.76540    1.000
    C153     C        0.06850    0.38050    0.48170    1.000
    H97      H        0.09690    0.37290    0.43910    1.000
    C154     C        0.97660    0.19540    0.70280    1.000
    H98      H        0.02750    0.22780    0.69520    1.000
    C155     C        0.92710    0.21380    0.64590    1.000
    H99      H        0.94450    0.25820    0.60130    1.000
    C156     C        0.65090    0.27950    0.53850    1.000
    H100     H        0.61090    0.32550    0.52790    1.000
    C157     C        0.50200    0.13190    0.78930    1.000
    H101     H        0.54130    0.15170    0.80700    1.000
    C158     C        0.55260    0.08270    0.75690    1.000
    H102     H        0.62500    0.06930    0.75500    1.000
    C159     C        0.35520    0.97260    0.03260    1.000
    H103     H        0.33960    0.93030    0.08250    1.000
    H104     H        0.42110    0.96040    0.00300    1.000
    C160     C        0.87730    0.98590    0.35480    1.000
    H105     H        0.88380    0.97300    0.31630    1.000
    C161     C        0.36210    0.04750    0.03520    1.000
    H106     H        0.42040    0.07760    0.99570    1.000
    H107     H        0.37160    0.03810    0.08330    1.000
    C162     C        0.82500    0.93670    0.42690    1.000
    H108     H        0.79630    0.89250    0.43530    1.000
    N5       N        0.26760    0.99000    0.99750    1.000
    H109     H        0.25320    0.96310    0.97890    1.000
    N6       N        0.26080    0.08410    0.02390    1.000
    H110     H        0.23410    0.12230    0.03330    1.000
    N7       N        0.76530    0.90030    0.56010    1.000
    N8       N        0.56410    0.24820    0.46590    1.000
    Mn5      Mn       0.00000    0.00000    0.00000    1.000
