# CIF file generated by openbabel 3.1.0, see https://openbabel.org
data_I
_chemical_name_common 'image0'
_cell_length_a 7.8999
_cell_length_b 13.7505
_cell_length_c 7.3829
_cell_angle_alpha 90
_cell_angle_beta 90
_cell_angle_gamma 90
_space_group_name_H-M_alt 'P 1'
_space_group_name_Hall 'P 1'
loop_
    _symmetry_equiv_pos_as_xyz
    x,y,z
loop_
    _atom_site_label
    _atom_site_type_symbol
    _atom_site_fract_x
    _atom_site_fract_y
    _atom_site_fract_z
    _atom_site_occupancy
    Mg1      Mg       0.22098    0.16484    0.26001    1.000
    O1       O        0.10328    0.26967    0.10864    1.000
    O2       O        0.92776    0.33370    0.90761    1.000
    O3       O        0.30787    0.28667    0.40332    1.000
    O4       O        0.50494    0.35375    0.57942    1.000
    O5       O        0.11756    0.04786    0.11992    1.000
    O6       O        0.13469    0.92785    0.91934    1.000
    C1       C        0.98721    0.26418    0.99530    1.000
    H1       H        0.93990    0.20170    0.97370    1.000
    C2       C        0.44413    0.28509    0.49220    1.000
    H2       H        0.50590    0.22580    0.49230    1.000
    C3       C        0.19567    0.99715    0.00550    1.000
    H3       H        0.31080    0.01310    0.98310    1.000
    Mg2      Mg       0.27902    0.83516    0.76001    1.000
    O7       O        0.39672    0.73033    0.60864    1.000
    O8       O        0.57224    0.66630    0.40761    1.000
    O9       O        0.19213    0.71333    0.90332    1.000
    O10      O        0.99506    0.64625    0.07942    1.000
    O11      O        0.38244    0.95214    0.61992    1.000
    O12      O        0.36531    0.07215    0.41934    1.000
    C4       C        0.51279    0.73582    0.49530    1.000
    H4       H        0.56010    0.79830    0.47370    1.000
    C5       C        0.05587    0.71491    0.99220    1.000
    H5       H        0.99410    0.77420    0.99230    1.000
    C6       C        0.30433    0.00285    0.50550    1.000
    H6       H        0.18920    0.98690    0.48310    1.000
    Mg3      Mg       0.77902    0.66484    0.23999    1.000
    O13      O        0.89672    0.76967    0.39136    1.000
    O14      O        0.07224    0.83370    0.59239    1.000
    O15      O        0.69213    0.78667    0.09668    1.000
    O16      O        0.49506    0.85375    0.92058    1.000
    O17      O        0.88244    0.54786    0.38008    1.000
    O18      O        0.86531    0.42785    0.58066    1.000
    C7       C        0.01279    0.76418    0.50470    1.000
    H7       H        0.06010    0.70170    0.52630    1.000
    C8       C        0.55587    0.78509    0.00780    1.000
    H8       H        0.49410    0.72580    0.00770    1.000
    C9       C        0.80433    0.49715    0.49450    1.000
    H9       H        0.68920    0.51310    0.51690    1.000
    Mg4      Mg       0.72098    0.33516    0.73999    1.000
    O19      O        0.60328    0.23033    0.89136    1.000
    O20      O        0.42776    0.16630    0.09239    1.000
    O21      O        0.80787    0.21333    0.59668    1.000
    O22      O        0.00494    0.14625    0.42058    1.000
    O23      O        0.61756    0.45214    0.88008    1.000
    O24      O        0.63469    0.57215    0.08066    1.000
    C10      C        0.48721    0.23582    0.00470    1.000
    H10      H        0.43990    0.29830    0.02630    1.000
    C11      C        0.94413    0.21491    0.50780    1.000
    H11      H        0.00590    0.27420    0.50770    1.000
    C12      C        0.69567    0.50285    0.99450    1.000
    H12      H        0.81080    0.48690    0.01690    1.000
