# CIF file generated by openbabel 3.1.0, see https://openbabel.org
data_I
_chemical_name_common 'image0'
_cell_length_a 15.97
_cell_length_b 18.597
_cell_length_c 28.434
_cell_angle_alpha 100.536
_cell_angle_beta 95.13
_cell_angle_gamma 109.615
_space_group_name_H-M_alt 'P 1'
_space_group_name_Hall 'P 1'
loop_
    _symmetry_equiv_pos_as_xyz
    x,y,z
loop_
    _atom_site_label
    _atom_site_type_symbol
    _atom_site_fract_x
    _atom_site_fract_y
    _atom_site_fract_z
    _atom_site_occupancy
    C1       C        0.81590    0.08060    0.18290    1.000
    H1       H        0.79750    0.12250    0.18070    1.000
    C2       C        0.76350    0.00560    0.15860    1.000
    H2       H        0.71080    0.99750    0.13820    1.000
    C3       C        0.86130    0.95460    0.19480    1.000
    H3       H        0.87410    0.91140    0.20050    1.000
    C4       C        0.91810    0.02730    0.21810    1.000
    H4       H        0.97010    0.03370    0.23860    1.000
    C5       C        0.73300    0.86220    0.13100    1.000
    C6       C        0.71310    0.85690    0.08240    1.000
    H5       H        0.72500    0.90290    0.07140    1.000
    C7       C        0.67590    0.78580    0.04880    1.000
    C8       C        0.65750    0.71830    0.06480    1.000
    C9       C        0.67200    0.72080    0.11390    1.000
    C10      C        0.71140    0.79270    0.14720    1.000
    C11      C        0.66790    0.78890    0.99640    1.000
    C12      C        0.62140    0.83270    0.97960    1.000
    H6       H        0.58900    0.85470    0.99940    1.000
    C13      C        0.62460    0.84290    0.93140    1.000
    H7       H        0.59590    0.87390    0.92010    1.000
    C14      C        0.66870    0.80820    0.90130    1.000
    C15      C        0.71260    0.76540    0.91850    1.000
    H8       H        0.74400    0.74280    0.89820    1.000
    C16      C        0.71290    0.75360    0.96570    1.000
    H9       H        0.74250    0.72270    0.97630    1.000
    C17      C        0.67040    0.82250    0.85210    1.000
    C18      C        0.65440    0.59330    0.02500    1.000
    H10      H        0.71590    0.61490    0.04100    1.000
    H11      H        0.65240    0.57530    0.99090    1.000
    H12      H        0.62140    0.55010    0.03810    1.000
    C19      C        0.66420    0.81010    0.22190    1.000
    H13      H        0.68170    0.81220    0.25540    1.000
    H14      H        0.60600    0.77000    0.21000    1.000
    H15      H        0.66170    0.85980    0.21850    1.000
    C20      C        0.42950    0.61200    0.09240    1.000
    H16      H        0.37520    0.62140    0.09760    1.000
    H17      H        0.41840    0.55700    0.08790    1.000
    H18      H        0.44900    0.62930    0.06400    1.000
    C21      C        0.85990    0.69210    0.17690    1.000
    H19      H        0.91830    0.70620    0.16730    1.000
    H20      H        0.85770    0.66180    0.20100    1.000
    H21      H        0.84870    0.73880    0.19010    1.000
    C22      C        0.64460    0.64860    0.13380    1.000
    C23      C        0.55750    0.61640    0.14340    1.000
    C24      C        0.53270    0.55390    0.16510    1.000
    C25      C        0.59610    0.51970    0.17460    1.000
    H22      H        0.57850    0.47530    0.18730    1.000
    C26      C        0.68310    0.54830    0.16600    1.000
    C27      C        0.70670    0.61410    0.14580    1.000
    C28      C        0.39500    0.44070    0.16580    1.000
    H23      H        0.41780    0.40840    0.14620    1.000
    C29      C        0.31430    0.40750    0.18220    1.000
    H24      H        0.28230    0.35390    0.17230    1.000
    C30      C        0.32710    0.53470    0.22470    1.000
    H25      H        0.30440    0.56650    0.24480    1.000
    C31      C        0.40720    0.56810    0.20640    1.000
    H26      H        0.43670    0.62210    0.21340    1.000
    C32      C        0.20010    0.41560    0.23490    1.000
    C33      C        0.74930    0.51310    0.18130    1.000
    C34      C        0.75050    0.49360    0.22570    1.000
    H27      H        0.70980    0.50270    0.24530    1.000
    C35      C        0.80920    0.46160    0.24170    1.000
    H28      H        0.80960    0.44990    0.27210    1.000
    C36      C        0.86930    0.44620    0.21170    1.000
    C37      C        0.86460    0.46090    0.16610    1.000
    H29      H        0.90140    0.44790    0.14510    1.000
    C38      C        0.80580    0.49470    0.15140    1.000
    H30      H        0.80410    0.50550    0.12070    1.000
    C39      C        0.93430    0.40950    0.22880    1.000
    C40      C        0.22550    0.07250    0.26920    1.000
    C41      C        0.14130    0.03530    0.28980    1.000
    C42      C        0.10840    0.08250    0.32030    1.000
    H31      H        0.13850    0.13650    0.32830    1.000
    C43      C        0.03070    0.04960    0.33890    1.000
    H32      H        0.00920    0.08140    0.35990    1.000
    C44      C        0.98590    0.97040    0.32650    1.000
    C45      C        0.02160    0.92150    0.29760    1.000
    H33      H        0.99360    0.86720    0.29080    1.000
    C46      C        0.09770    0.95530    0.27990    1.000
    H34      H        0.12120    0.92340    0.26050    1.000
    C47      C        0.89470    0.93760    0.34140    1.000
    C48      C        0.83410    0.97360    0.33310    1.000
    H35      H        0.85300    0.01780    0.32030    1.000
    C49      C        0.74620    0.94780    0.34280    1.000
    C50      C        0.72040    0.88200    0.36340    1.000
    C51      C        0.78080    0.84420    0.37230    1.000
    C52      C        0.86550    0.87230    0.36190    1.000
    C53      C        0.00120    0.87580    0.40760    1.000
    H36      H        0.04110    0.84720    0.40900    1.000
    H37      H        0.98130    0.88420    0.43840    1.000
    H38      H        0.03230    0.92540    0.40040    1.000
    C54      C        0.56280    0.81410    0.33520    1.000
    H39      H        0.50700    0.79890    0.34760    1.000
    H40      H        0.57030    0.76840    0.31710    1.000
    H41      H        0.56200    0.84930    0.31450    1.000
    C55      C        0.68500    0.98720    0.32900    1.000
    C56      C        0.68430    0.00620    0.28320    1.000
    H42      H        0.72310    0.99550    0.26280    1.000
    C57      C        0.62600    0.04060    0.26920    1.000
    H43      H        0.62470    0.05180    0.23860    1.000
    C58      C        0.56940    0.05930    0.29850    1.000
    C59      C        0.57180    0.04280    0.34430    1.000
    H44      H        0.53410    0.05530    0.36480    1.000
    C60      C        0.62980    0.00800    0.35910    1.000
    H45      H        0.63180    0.99830    0.39000    1.000
    C61      C        0.50240    0.09460    0.28070    1.000
    C62      C        0.73270    0.68440    0.28100    1.000
    H46      H        0.70730    0.67830    0.24790    1.000
    H47      H        0.74200    0.63730    0.28480    1.000
    H48      H        0.78930    0.72750    0.28920    1.000
    C63      C        0.78400    0.89140    0.48840    1.000
    H49      H        0.81450    0.92220    0.52010    1.000
    H50      H        0.72410    0.85930    0.49020    1.000
    H51      H        0.78270    0.92550    0.46700    1.000
    C64      C        0.75080    0.77200    0.39190    1.000
    C65      C        0.69740    0.70060    0.36110    1.000
    C66      C        0.67170    0.62970    0.37630    1.000
    C67      C        0.70160    0.63400    0.42430    1.000
    H52      H        0.68670    0.58790    0.43530    1.000
    C68      C        0.75340    0.70490    0.45710    1.000
    C69      C        0.77770    0.77400    0.43990    1.000
    C70      C        0.82910    0.66180    0.51850    1.000
    H53      H        0.84530    0.63180    0.49360    1.000
    C71      C        0.85720    0.66430    0.56830    1.000
    H54      H        0.89840    0.64090    0.57550    1.000
    C72      C        0.76550    0.72900    0.59240    1.000
    H55      H        0.73620    0.74710    0.61610    1.000
    C73      C        0.74460    0.73380    0.54560    1.000
    H56      H        0.70490    0.75890    0.53900    1.000
    C74      C        0.85130    0.69420    0.65560    1.000
    C75      C        0.61300    0.55550    0.34520    1.000
    C76      C        0.53120    0.54530    0.31960    1.000
    H57      H        0.51570    0.58890    0.31800    1.000
    C77      C        0.47140    0.47150    0.29620    1.000
    H58      H        0.41620    0.46680    0.27970    1.000
    C78      C        0.49010    0.40600    0.29630    1.000
    C79      C        0.57490    0.41380    0.31720    1.000
    H59      H        0.59090    0.36970    0.31460    1.000
    C80      C        0.63850    0.48830    0.34270    1.000
    H60      H        0.69520    0.49300    0.35740    1.000
    C81      C        0.42570    0.32510    0.27040    1.000
    O1       O        0.04580    0.18780    0.24500    1.000
    O2       O        0.94300    0.40620    0.27260    1.000
    O3       O        0.97560    0.38380    0.19910    1.000
    O4       O        0.16910    0.45750    0.26010    1.000
    O5       O        0.16580    0.34170    0.22510    1.000
    O6       O        0.25170    0.14590    0.27270    1.000
    O7       O        0.26420    0.03040    0.24910    1.000
    O8       O        0.71080    0.78810    0.82460    1.000
    O9       O        0.63180    0.86530    0.83850    1.000
    O10      O        0.34200    0.31720    0.26510    1.000
    O11      O        0.45390    0.27350    0.26700    1.000
    O12      O        0.49410    0.09650    0.23690    1.000
    O13      O        0.45980    0.11910    0.30970    1.000
    O14      O        0.90980    0.66320    0.66220    1.000
    O15      O        0.81280    0.72000    0.68640    1.000
    O16      O        0.49960    0.65520    0.13450    1.000
    O17      O        0.79310    0.64700    0.13590    1.000
    O18      O        0.61760    0.64820    0.03190    1.000
    O19      O        0.72750    0.79310    0.19510    1.000
    O20      O        0.67080    0.70010    0.31310    1.000
    O21      O        0.83160    0.84310    0.47040    1.000
    O22      O        0.63630    0.85270    0.37490    1.000
    O23      O        0.92150    0.82990    0.36900    1.000
    C82      C        0.28230    0.45360    0.21250    1.000
    C83      C        0.78590    0.94270    0.16320    1.000
    C84      C        0.44120    0.51950    0.17790    1.000
    C85      C        0.89810    0.09220    0.21130    1.000
    C86      C        0.77870    0.70400    0.50890    1.000
    C87      C        0.82640    0.69910    0.60470    1.000
    O24      O        0.93390    0.22940    0.23410    1.000
    C88      C        0.96280    0.17380    0.23180    1.000
    Cd1      Cd       0.19333    0.22537    0.23173    1.000
    Cd2      Cd       0.38215    0.14410    0.24088    1.000
    Cd3      Cd       0.04404    0.34534    0.26525    1.000
    Eu1      Eu       0.80667    0.77463    0.76827    1.000
    C89      C        0.18410    0.91940    0.81710    1.000
    H61      H        0.20250    0.87750    0.81930    1.000
    C90      C        0.23650    0.99440    0.84140    1.000
    H62      H        0.28920    0.00250    0.86180    1.000
    C91      C        0.13870    0.04540    0.80520    1.000
    H63      H        0.12590    0.08860    0.79950    1.000
    C92      C        0.08190    0.97270    0.78190    1.000
    H64      H        0.02990    0.96630    0.76140    1.000
    C93      C        0.26700    0.13780    0.86900    1.000
    C94      C        0.28690    0.14310    0.91760    1.000
    H65      H        0.27500    0.09710    0.92860    1.000
    C95      C        0.32410    0.21420    0.95120    1.000
    C96      C        0.34250    0.28170    0.93520    1.000
    C97      C        0.32800    0.27920    0.88610    1.000
    C98      C        0.28860    0.20730    0.85280    1.000
    C99      C        0.33210    0.21110    0.00360    1.000
    C100     C        0.37860    0.16730    0.02040    1.000
    H66      H        0.41100    0.14530    0.00060    1.000
    C101     C        0.37540    0.15710    0.06860    1.000
    H67      H        0.40410    0.12610    0.07990    1.000
    C102     C        0.33130    0.19180    0.09870    1.000
    C103     C        0.28740    0.23460    0.08150    1.000
    H68      H        0.25600    0.25720    0.10180    1.000
    C104     C        0.28710    0.24640    0.03430    1.000
    H69      H        0.25750    0.27730    0.02370    1.000
    C105     C        0.32960    0.17750    0.14790    1.000
    C106     C        0.34560    0.40670    0.97500    1.000
    H70      H        0.28410    0.38510    0.95900    1.000
    H71      H        0.34760    0.42470    0.00910    1.000
    H72      H        0.37860    0.44990    0.96190    1.000
    C107     C        0.33580    0.18990    0.77810    1.000
    H73      H        0.31830    0.18780    0.74460    1.000
    H74      H        0.39400    0.23000    0.79000    1.000
    H75      H        0.33830    0.14020    0.78150    1.000
    C108     C        0.57050    0.38800    0.90760    1.000
    H76      H        0.62480    0.37860    0.90240    1.000
    H77      H        0.58160    0.44300    0.91210    1.000
    H78      H        0.55100    0.37070    0.93600    1.000
    C109     C        0.14010    0.30790    0.82310    1.000
    H79      H        0.08170    0.29380    0.83270    1.000
    H80      H        0.14230    0.33820    0.79900    1.000
    H81      H        0.15130    0.26120    0.80990    1.000
    C110     C        0.35540    0.35140    0.86620    1.000
    C111     C        0.44250    0.38360    0.85660    1.000
    C112     C        0.46730    0.44610    0.83490    1.000
    C113     C        0.40390    0.48030    0.82540    1.000
    H82      H        0.42150    0.52470    0.81270    1.000
    C114     C        0.31690    0.45170    0.83400    1.000
    C115     C        0.29330    0.38590    0.85420    1.000
    C116     C        0.60500    0.55930    0.83420    1.000
    H83      H        0.58220    0.59160    0.85380    1.000
    C117     C        0.68570    0.59250    0.81780    1.000
    H84      H        0.71770    0.64610    0.82770    1.000
    C118     C        0.67290    0.46530    0.77530    1.000
    H85      H        0.69560    0.43350    0.75520    1.000
    C119     C        0.59280    0.43190    0.79360    1.000
    H86      H        0.56330    0.37790    0.78660    1.000
    C120     C        0.79990    0.58440    0.76510    1.000
    C121     C        0.25070    0.48690    0.81870    1.000
    C122     C        0.24950    0.50640    0.77430    1.000
    H87      H        0.29020    0.49730    0.75470    1.000
    C123     C        0.19080    0.53840    0.75830    1.000
    H88      H        0.19040    0.55010    0.72790    1.000
    C124     C        0.13070    0.55380    0.78830    1.000
    C125     C        0.13540    0.53910    0.83390    1.000
    H89      H        0.09860    0.55210    0.85490    1.000
    C126     C        0.19420    0.50530    0.84860    1.000
    H90      H        0.19590    0.49450    0.87930    1.000
    C127     C        0.06570    0.59050    0.77120    1.000
    C128     C        0.77450    0.92750    0.73080    1.000
    C129     C        0.85870    0.96470    0.71020    1.000
    C130     C        0.89160    0.91750    0.67970    1.000
    H91      H        0.86150    0.86350    0.67170    1.000
    C131     C        0.96930    0.95040    0.66110    1.000
    H92      H        0.99080    0.91860    0.64010    1.000
    C132     C        0.01410    0.02960    0.67350    1.000
    C133     C        0.97840    0.07850    0.70240    1.000
    H93      H        0.00640    0.13280    0.70920    1.000
    C134     C        0.90230    0.04470    0.72010    1.000
    H94      H        0.87880    0.07660    0.73950    1.000
    C135     C        0.10530    0.06240    0.65860    1.000
    C136     C        0.16590    0.02640    0.66690    1.000
    H95      H        0.14700    0.98220    0.67970    1.000
    C137     C        0.25380    0.05220    0.65720    1.000
    C138     C        0.27960    0.11800    0.63660    1.000
    C139     C        0.21920    0.15580    0.62770    1.000
    C140     C        0.13450    0.12770    0.63810    1.000
    C141     C        0.99880    0.12420    0.59240    1.000
    H96      H        0.95890    0.15280    0.59100    1.000
    H97      H        0.01870    0.11580    0.56160    1.000
    H98      H        0.96770    0.07460    0.59960    1.000
    C142     C        0.43720    0.18590    0.66480    1.000
    H99      H        0.49300    0.20110    0.65240    1.000
    H100     H        0.42970    0.23160    0.68290    1.000
    H101     H        0.43800    0.15070    0.68550    1.000
    C143     C        0.31500    0.01280    0.67100    1.000
    C144     C        0.31570    0.99380    0.71680    1.000
    H102     H        0.27690    0.00450    0.73720    1.000
    C145     C        0.37400    0.95940    0.73080    1.000
    H103     H        0.37530    0.94820    0.76140    1.000
    C146     C        0.43060    0.94070    0.70150    1.000
    C147     C        0.42820    0.95720    0.65570    1.000
    H104     H        0.46590    0.94470    0.63520    1.000
    C148     C        0.37020    0.99200    0.64090    1.000
    H105     H        0.36820    0.00170    0.61000    1.000
    C149     C        0.49760    0.90540    0.71930    1.000
    C150     C        0.26730    0.31560    0.71900    1.000
    H106     H        0.29270    0.32170    0.75210    1.000
    H107     H        0.25800    0.36270    0.71520    1.000
    H108     H        0.21070    0.27250    0.71080    1.000
    C151     C        0.21600    0.10860    0.51160    1.000
    H109     H        0.18550    0.07780    0.47990    1.000
    H110     H        0.27590    0.14070    0.50980    1.000
    H111     H        0.21730    0.07450    0.53300    1.000
    C152     C        0.24920    0.22800    0.60810    1.000
    C153     C        0.30260    0.29940    0.63890    1.000
    C154     C        0.32830    0.37030    0.62370    1.000
    C155     C        0.29840    0.36600    0.57570    1.000
    H112     H        0.31330    0.41210    0.56470    1.000
    C156     C        0.24660    0.29510    0.54290    1.000
    C157     C        0.22230    0.22600    0.56010    1.000
    C158     C        0.17090    0.33820    0.48150    1.000
    H113     H        0.15470    0.36820    0.50640    1.000
    C159     C        0.14280    0.33570    0.43170    1.000
    H114     H        0.10160    0.35910    0.42450    1.000
    C160     C        0.23450    0.27100    0.40760    1.000
    H115     H        0.26380    0.25290    0.38390    1.000
    C161     C        0.25540    0.26620    0.45440    1.000
    H116     H        0.29510    0.24110    0.46100    1.000
    C162     C        0.14870    0.30580    0.34440    1.000
    C163     C        0.38700    0.44450    0.65480    1.000
    C164     C        0.46880    0.45470    0.68040    1.000
    H117     H        0.48430    0.41110    0.68200    1.000
    C165     C        0.52860    0.52850    0.70380    1.000
    H118     H        0.58380    0.53320    0.72030    1.000
    C166     C        0.50990    0.59400    0.70370    1.000
    C167     C        0.42510    0.58620    0.68280    1.000
    H119     H        0.40910    0.63030    0.68540    1.000
    C168     C        0.36150    0.51170    0.65730    1.000
    H120     H        0.30480    0.50700    0.64260    1.000
    C169     C        0.57430    0.67490    0.72960    1.000
    O25      O        0.95420    0.81220    0.75500    1.000
    O26      O        0.05700    0.59380    0.72740    1.000
    O27      O        0.02440    0.61620    0.80090    1.000
    O28      O        0.83090    0.54250    0.73990    1.000
    O29      O        0.83420    0.65830    0.77490    1.000
    O30      O        0.74830    0.85410    0.72730    1.000
    O31      O        0.73580    0.96960    0.75090    1.000
    O32      O        0.28920    0.21190    0.17540    1.000
    O33      O        0.36820    0.13470    0.16150    1.000
    O34      O        0.65800    0.68280    0.73490    1.000
    O35      O        0.54610    0.72650    0.73300    1.000
    O36      O        0.50590    0.90350    0.76310    1.000
    O37      O        0.54020    0.88090    0.69030    1.000
    O38      O        0.09020    0.33680    0.33780    1.000
    O39      O        0.18720    0.28000    0.31360    1.000
    O40      O        0.50040    0.34480    0.86550    1.000
    O41      O        0.20690    0.35300    0.86410    1.000
    O42      O        0.38240    0.35180    0.96810    1.000
    O43      O        0.27250    0.20690    0.80490    1.000
    O44      O        0.32920    0.29990    0.68690    1.000
    O45      O        0.16840    0.15690    0.52960    1.000
    O46      O        0.36370    0.14730    0.62510    1.000
    O47      O        0.07850    0.17010    0.63100    1.000
    C170     C        0.71770    0.54640    0.78750    1.000
    C171     C        0.21410    0.05730    0.83680    1.000
    C172     C        0.55880    0.48050    0.82210    1.000
    C173     C        0.10190    0.90780    0.78870    1.000
    C174     C        0.22130    0.29600    0.49110    1.000
    C175     C        0.17360    0.30090    0.39530    1.000
    O48      O        0.06610    0.77060    0.76590    1.000
    C176     C        0.03720    0.82620    0.76820    1.000
    Cd4      Cd       0.61785    0.85590    0.75912    1.000
    Cd5      Cd       0.95596    0.65466    0.73475    1.000
