# CIF file generated by openbabel 3.1.0, see https://openbabel.org
data_I
_chemical_name_common 'image0'
_cell_length_a 18.7806
_cell_length_b 19.9045
_cell_length_c 8.7871
_cell_angle_alpha 90
_cell_angle_beta 100.981
_cell_angle_gamma 90
_space_group_name_H-M_alt 'P 1'
_space_group_name_Hall 'P 1'
loop_
    _symmetry_equiv_pos_as_xyz
    x,y,z
loop_
    _atom_site_label
    _atom_site_type_symbol
    _atom_site_fract_x
    _atom_site_fract_y
    _atom_site_fract_z
    _atom_site_occupancy
    C1       C        0.35100    0.38960    0.27100    1.000
    H1       H        0.34550    0.34900    0.31970    1.000
    C2       C        0.41710    0.45960    0.14800    1.000
    H2       H        0.45860    0.46810    0.10770    1.000
    C3       C        0.36500    0.50850    0.13260    1.000
    H3       H        0.37190    0.54890    0.08410    1.000
    C4       C        0.30250    0.49800    0.18890    1.000
    C5       C        0.29600    0.43670    0.25630    1.000
    H4       H        0.25390    0.42670    0.29280    1.000
    C6       C        0.24310    0.59060    0.30730    1.000
    H5       H        0.29030    0.61180    0.33410    1.000
    H6       H        0.23770    0.56140    0.39270    1.000
    C7       C        0.08330    0.70570    0.15720    1.000
    H7       H        0.04870    0.71180    0.06730    1.000
    C8       C        0.13380    0.65530    0.15830    1.000
    H8       H        0.13340    0.62890    0.07090    1.000
    C9       C        0.18130    0.68600    0.41810    1.000
    H9       H        0.21360    0.68030    0.51150    1.000
    C10      C        0.12990    0.73470    0.40510    1.000
    H10      H        0.12850    0.76170    0.49080    1.000
    C11      C        0.99830    0.84790    0.88100    1.000
    C12      C        0.24230    0.54910    0.17010    1.000
    H11      H        0.24600    0.57810    0.08320    1.000
    H12      H        0.19610    0.52590    0.14550    1.000
    C13      C        0.18610    0.64460    0.29390    1.000
    N1       N        0.08110    0.74570    0.27520    1.000
    N2       N        0.41240    0.40120    0.21640    1.000
    N3       N        0.99760    0.83250    0.00360    1.000
    N4       N        0.01400    0.87490    0.75500    1.000
    C14      C        0.85100    0.88960    0.27100    1.000
    H13      H        0.84550    0.84900    0.31970    1.000
    C15      C        0.91710    0.95960    0.14800    1.000
    H14      H        0.95860    0.96810    0.10770    1.000
    C16      C        0.86500    0.00850    0.13260    1.000
    H15      H        0.87190    0.04890    0.08410    1.000
    C17      C        0.80250    0.99800    0.18890    1.000
    C18      C        0.79600    0.93670    0.25630    1.000
    H16      H        0.75390    0.92670    0.29280    1.000
    C19      C        0.74310    0.09060    0.30730    1.000
    H17      H        0.79030    0.11180    0.33410    1.000
    H18      H        0.73770    0.06140    0.39270    1.000
    C20      C        0.58330    0.20570    0.15720    1.000
    H19      H        0.54870    0.21180    0.06730    1.000
    C21      C        0.63380    0.15530    0.15830    1.000
    H20      H        0.63340    0.12890    0.07090    1.000
    C22      C        0.68130    0.18600    0.41810    1.000
    H21      H        0.71360    0.18030    0.51150    1.000
    C23      C        0.62990    0.23470    0.40510    1.000
    H22      H        0.62850    0.26170    0.49080    1.000
    C24      C        0.49830    0.34790    0.88100    1.000
    C25      C        0.74230    0.04910    0.17010    1.000
    H23      H        0.74600    0.07810    0.08320    1.000
    H24      H        0.69610    0.02590    0.14550    1.000
    C26      C        0.68610    0.14460    0.29390    1.000
    N5       N        0.58110    0.24570    0.27520    1.000
    N6       N        0.91240    0.90120    0.21640    1.000
    N7       N        0.49760    0.33250    0.00360    1.000
    N8       N        0.51400    0.37490    0.75500    1.000
    C27      C        0.64900    0.38960    0.22900    1.000
    H25      H        0.65450    0.34900    0.18030    1.000
    C28      C        0.58290    0.45960    0.35200    1.000
    H26      H        0.54140    0.46810    0.39230    1.000
    C29      C        0.63500    0.50850    0.36740    1.000
    H27      H        0.62810    0.54890    0.41590    1.000
    C30      C        0.69750    0.49800    0.31110    1.000
    C31      C        0.70400    0.43670    0.24370    1.000
    H28      H        0.74610    0.42670    0.20720    1.000
    C32      C        0.75690    0.59060    0.19270    1.000
    H29      H        0.70970    0.61180    0.16590    1.000
    H30      H        0.76230    0.56140    0.10730    1.000
    C33      C        0.91670    0.70570    0.34280    1.000
    H31      H        0.95130    0.71180    0.43270    1.000
    C34      C        0.86620    0.65530    0.34170    1.000
    H32      H        0.86660    0.62890    0.42910    1.000
    C35      C        0.81870    0.68600    0.08190    1.000
    H33      H        0.78640    0.68030    0.98850    1.000
    C36      C        0.87010    0.73470    0.09490    1.000
    H34      H        0.87150    0.76170    0.00920    1.000
    C37      C        0.00170    0.84790    0.61900    1.000
    C38      C        0.75770    0.54910    0.32990    1.000
    H35      H        0.75400    0.57810    0.41680    1.000
    H36      H        0.80390    0.52590    0.35450    1.000
    C39      C        0.81390    0.64460    0.20610    1.000
    N9       N        0.91890    0.74570    0.22480    1.000
    N10      N        0.58760    0.40120    0.28360    1.000
    N11      N        0.00240    0.83250    0.49640    1.000
    N12      N        0.98600    0.87490    0.74500    1.000
    C40      C        0.14900    0.88960    0.22900    1.000
    H37      H        0.15450    0.84900    0.18030    1.000
    C41      C        0.08290    0.95960    0.35200    1.000
    H38      H        0.04140    0.96810    0.39230    1.000
    C42      C        0.13500    0.00850    0.36740    1.000
    H39      H        0.12810    0.04890    0.41590    1.000
    C43      C        0.19750    0.99800    0.31110    1.000
    C44      C        0.20400    0.93670    0.24370    1.000
    H40      H        0.24610    0.92670    0.20720    1.000
    C45      C        0.25690    0.09060    0.19270    1.000
    H41      H        0.20970    0.11180    0.16590    1.000
    H42      H        0.26230    0.06140    0.10730    1.000
    C46      C        0.41670    0.20570    0.34280    1.000
    H43      H        0.45130    0.21180    0.43270    1.000
    C47      C        0.36620    0.15530    0.34170    1.000
    H44      H        0.36660    0.12890    0.42910    1.000
    C48      C        0.31870    0.18600    0.08190    1.000
    H45      H        0.28640    0.18030    0.98850    1.000
    C49      C        0.37010    0.23470    0.09490    1.000
    H46      H        0.37150    0.26170    0.00920    1.000
    C50      C        0.50170    0.34790    0.61900    1.000
    C51      C        0.25770    0.04910    0.32990    1.000
    H47      H        0.25400    0.07810    0.41680    1.000
    H48      H        0.30390    0.02590    0.35450    1.000
    C52      C        0.31390    0.14460    0.20610    1.000
    N13      N        0.41890    0.24570    0.22480    1.000
    N14      N        0.08760    0.90120    0.28360    1.000
    N15      N        0.50240    0.33250    0.49640    1.000
    N16      N        0.48600    0.37490    0.74500    1.000
    Zn1      Zn       0.00000    0.82488    0.25000    1.000
    Zn2      Zn       0.50000    0.32488    0.25000    1.000
    C53      C        0.64900    0.61040    0.72900    1.000
    H49      H        0.65450    0.65100    0.68030    1.000
    C54      C        0.58290    0.54040    0.85200    1.000
    H50      H        0.54140    0.53190    0.89230    1.000
    C55      C        0.63500    0.49150    0.86740    1.000
    H51      H        0.62810    0.45110    0.91590    1.000
    C56      C        0.69750    0.50200    0.81110    1.000
    C57      C        0.70400    0.56330    0.74370    1.000
    H52      H        0.74610    0.57330    0.70720    1.000
    C58      C        0.75690    0.40940    0.69270    1.000
    H53      H        0.70970    0.38820    0.66590    1.000
    H54      H        0.76230    0.43860    0.60730    1.000
    C59      C        0.91670    0.29430    0.84280    1.000
    H55      H        0.95130    0.28820    0.93270    1.000
    C60      C        0.86620    0.34470    0.84170    1.000
    H56      H        0.86660    0.37110    0.92910    1.000
    C61      C        0.81870    0.31400    0.58190    1.000
    H57      H        0.78640    0.31970    0.48850    1.000
    C62      C        0.87010    0.26530    0.59490    1.000
    H58      H        0.87150    0.23830    0.50920    1.000
    C63      C        0.00170    0.15210    0.11900    1.000
    C64      C        0.75770    0.45090    0.82990    1.000
    H59      H        0.75400    0.42190    0.91680    1.000
    H60      H        0.80390    0.47410    0.85450    1.000
    C65      C        0.81390    0.35540    0.70610    1.000
    N17      N        0.91890    0.25430    0.72480    1.000
    N18      N        0.58760    0.59880    0.78360    1.000
    N19      N        0.00240    0.16750    0.99640    1.000
    N20      N        0.98600    0.12510    0.24500    1.000
    C66      C        0.14900    0.11040    0.72900    1.000
    H61      H        0.15450    0.15100    0.68030    1.000
    C67      C        0.08290    0.04040    0.85200    1.000
    H62      H        0.04140    0.03190    0.89230    1.000
    C68      C        0.13500    0.99150    0.86740    1.000
    H63      H        0.12810    0.95110    0.91590    1.000
    C69      C        0.19750    0.00200    0.81110    1.000
    C70      C        0.20400    0.06330    0.74370    1.000
    H64      H        0.24610    0.07330    0.70720    1.000
    C71      C        0.25690    0.90940    0.69270    1.000
    H65      H        0.20970    0.88820    0.66590    1.000
    H66      H        0.26230    0.93860    0.60730    1.000
    C72      C        0.41670    0.79430    0.84280    1.000
    H67      H        0.45130    0.78820    0.93270    1.000
    C73      C        0.36620    0.84470    0.84170    1.000
    H68      H        0.36660    0.87110    0.92910    1.000
    C74      C        0.31870    0.81400    0.58190    1.000
    H69      H        0.28640    0.81970    0.48850    1.000
    C75      C        0.37010    0.76530    0.59490    1.000
    H70      H        0.37150    0.73830    0.50920    1.000
    C76      C        0.50170    0.65210    0.11900    1.000
    C77      C        0.25770    0.95090    0.82990    1.000
    H71      H        0.25400    0.92190    0.91680    1.000
    H72      H        0.30390    0.97410    0.85450    1.000
    C78      C        0.31390    0.85540    0.70610    1.000
    N21      N        0.41890    0.75430    0.72480    1.000
    N22      N        0.08760    0.09880    0.78360    1.000
    N23      N        0.50240    0.66750    0.99640    1.000
    N24      N        0.48600    0.62510    0.24500    1.000
    C79      C        0.35100    0.61040    0.77100    1.000
    H73      H        0.34550    0.65100    0.81970    1.000
    C80      C        0.41710    0.54040    0.64800    1.000
    H74      H        0.45860    0.53190    0.60770    1.000
    C81      C        0.36500    0.49150    0.63260    1.000
    H75      H        0.37190    0.45110    0.58410    1.000
    C82      C        0.30250    0.50200    0.68890    1.000
    C83      C        0.29600    0.56330    0.75630    1.000
    H76      H        0.25390    0.57330    0.79280    1.000
    C84      C        0.24310    0.40940    0.80730    1.000
    H77      H        0.29030    0.38820    0.83410    1.000
    H78      H        0.23770    0.43860    0.89270    1.000
    C85      C        0.08330    0.29430    0.65720    1.000
    H79      H        0.04870    0.28820    0.56730    1.000
    C86      C        0.13380    0.34470    0.65830    1.000
    H80      H        0.13340    0.37110    0.57090    1.000
    C87      C        0.18130    0.31400    0.91810    1.000
    H81      H        0.21360    0.31970    0.01150    1.000
    C88      C        0.12990    0.26530    0.90510    1.000
    H82      H        0.12850    0.23830    0.99080    1.000
    C89      C        0.99830    0.15210    0.38100    1.000
    C90      C        0.24230    0.45090    0.67010    1.000
    H83      H        0.24600    0.42190    0.58320    1.000
    H84      H        0.19610    0.47410    0.64550    1.000
    C91      C        0.18610    0.35540    0.79390    1.000
    N25      N        0.08110    0.25430    0.77520    1.000
    N26      N        0.41240    0.59880    0.71640    1.000
    N27      N        0.99760    0.16750    0.50360    1.000
    N28      N        0.01400    0.12510    0.25500    1.000
    C92      C        0.85100    0.11040    0.77100    1.000
    H85      H        0.84550    0.15100    0.81970    1.000
    C93      C        0.91710    0.04040    0.64800    1.000
    H86      H        0.95860    0.03190    0.60770    1.000
    C94      C        0.86500    0.99150    0.63260    1.000
    H87      H        0.87190    0.95110    0.58410    1.000
    C95      C        0.80250    0.00200    0.68890    1.000
    C96      C        0.79600    0.06330    0.75630    1.000
    H88      H        0.75390    0.07330    0.79280    1.000
    C97      C        0.74310    0.90940    0.80730    1.000
    H89      H        0.79030    0.88820    0.83410    1.000
    H90      H        0.73770    0.93860    0.89270    1.000
    C98      C        0.58330    0.79430    0.65720    1.000
    H91      H        0.54870    0.78820    0.56730    1.000
    C99      C        0.63380    0.84470    0.65830    1.000
    H92      H        0.63340    0.87110    0.57090    1.000
    C100     C        0.68130    0.81400    0.91810    1.000
    H93      H        0.71360    0.81970    0.01150    1.000
    C101     C        0.62990    0.76530    0.90510    1.000
    H94      H        0.62850    0.73830    0.99080    1.000
    C102     C        0.49830    0.65210    0.38100    1.000
    C103     C        0.74230    0.95090    0.67010    1.000
    H95      H        0.74600    0.92190    0.58320    1.000
    H96      H        0.69610    0.97410    0.64550    1.000
    C104     C        0.68610    0.85540    0.79390    1.000
    N29      N        0.58110    0.75430    0.77520    1.000
    N30      N        0.91240    0.09880    0.71640    1.000
    N31      N        0.49760    0.66750    0.50360    1.000
    N32      N        0.51400    0.62510    0.25500    1.000
    Zn3      Zn       0.00000    0.17512    0.75000    1.000
    Zn4      Zn       0.50000    0.67512    0.75000    1.000
