# CIF file generated by openbabel 3.1.0, see https://openbabel.org
data_I
_chemical_name_common 'BAHGUN01_clean'
_cell_length_a 4.9579
_cell_length_b 10.9881
_cell_length_c 12.7819
_cell_angle_alpha 91.5597
_cell_angle_beta 101.183
_cell_angle_gamma 81.9322
_space_group_name_H-M_alt 'P 1'
_space_group_name_Hall 'P 1'
loop_
    _symmetry_equiv_pos_as_xyz
    x,y,z
loop_
    _atom_site_label
    _atom_site_type_symbol
    _atom_site_fract_x
    _atom_site_fract_y
    _atom_site_fract_z
    _atom_site_occupancy
    Cu1      Cu       0.05648    0.78373    0.22654    1.000
    Cu2      Cu       0.82994    0.28373    0.77346    1.000
    H1       H        0.86140    0.52070    0.66300    1.000
    H2       H        0.64440    0.62850    0.51120    1.000
    H3       H        0.09680    0.38370    0.45540    1.000
    H4       H        0.32790    0.28250    0.61040    1.000
    H5       H        0.31950    0.09260    0.80420    1.000
    H6       H        0.58430    0.95790    0.93160    1.000
    H7       H        0.06190    0.07810    0.13000    1.000
    H8       H        0.82520    0.21610    0.00000    1.000
    H9       H        0.19840    0.02070    0.33700    1.000
    H10      H        0.13320    0.12850    0.48880    1.000
    H11      H        0.64140    0.88370    0.54460    1.000
    H12      H        0.71750    0.78250    0.38960    1.000
    H13      H        0.51530    0.59260    0.19580    1.000
    H14      H        0.65270    0.45790    0.06840    1.000
    H15      H        0.93190    0.57810    0.87000    1.000
    H16      H        0.82520    0.71610    0.00000    1.000
    C1       C        0.70536    0.49290    0.62032    1.000
    C2       C        0.57681    0.55790    0.52962    1.000
    C3       C        0.34556    0.51780    0.46552    1.000
    C4       C        0.25267    0.41310    0.49674    1.000
    C5       C        0.39239    0.35280    0.58938    1.000
    C6       C        0.19095    0.58790    0.36570    1.000
    C7       C        0.26879    0.09020    0.87118    1.000
    C8       C        0.42737    0.00850    0.94694    1.000
    C9       C        0.35247    0.00190    0.04594    1.000
    C10      C        0.12052    0.08040    0.06444    1.000
    C11      C        0.97740    0.16150    0.98560    1.000
    C12      C        0.51829    0.91560    0.13218    1.000
    C13      C        0.08504    0.99290    0.37968    1.000
    C14      C        0.04719    0.05790    0.47038    1.000
    C15      C        0.88004    0.01780    0.53448    1.000
    C16      C        0.75593    0.91310    0.50326    1.000
    C17      C        0.80301    0.85280    0.41062    1.000
    C18      C        0.82525    0.08790    0.63430    1.000
    C19      C        0.39761    0.59020    0.12882    1.000
    C20      C        0.48043    0.50850    0.05306    1.000
    C21      C        0.30653    0.50190    0.95406    1.000
    C22      C        0.05608    0.58040    0.93556    1.000
    C23      C        0.99180    0.66150    0.01440    1.000
    C24      C        0.38611    0.41560    0.86782    1.000
    N1       N        0.61809    0.39150    0.65058    1.000
    N2       N        0.04585    0.16610    0.88910    1.000
    N3       N        0.96751    0.89150    0.34942    1.000
    N4       N        0.15675    0.66610    0.11090    1.000
    O1       O        0.29852    0.67850    0.34124    1.000
    O2       O        0.97020    0.55510    0.31720    1.000
    O3       O        0.76689    0.87844    0.12138    1.000
    O4       O        0.40853    0.88772    0.20606    1.000
    O5       O        0.95728    0.17850    0.65876    1.000
    O6       O        0.65300    0.05510    0.68280    1.000
    O7       O        0.64551    0.37844    0.87862    1.000
    O8       O        0.20247    0.38772    0.79394    1.000
