# CIF file generated by openbabel 3.1.0, see https://openbabel.org
data_I
_chemical_name_common 'image0'
_cell_length_a 11.1345
_cell_length_b 11.1659
_cell_length_c 12.6916
_cell_angle_alpha 88.067
_cell_angle_beta 88.907
_cell_angle_gamma 65.226
_space_group_name_H-M_alt 'P 1'
_space_group_name_Hall 'P 1'
loop_
    _symmetry_equiv_pos_as_xyz
    x,y,z
loop_
    _atom_site_label
    _atom_site_type_symbol
    _atom_site_fract_x
    _atom_site_fract_y
    _atom_site_fract_z
    _atom_site_occupancy
    Cd1      Cd       0.29268    0.76106    0.82459    1.000
    O1       O        0.08170    0.76310    0.88260    1.000
    O2       O        0.24550    0.57160    0.84440    1.000
    N1       N        0.22860    0.79850    0.64860    1.000
    N2       N        0.13310    0.81940    0.49420    1.000
    N3       N        0.30610    0.73400    0.17390    1.000
    N4       N        0.93410    0.81300    0.21150    1.000
    N5       N        0.31310    0.46820    0.30070    1.000
    N6       N        0.49340    0.31920    0.22890    1.000
    N7       N        0.78950    0.01230    0.16230    1.000
    N8       N        0.34600    0.72590    0.00230    1.000
    C1       C        0.15850    0.75600    0.58970    1.000
    H1       H        0.13050    0.69130    0.61090    1.000
    C2       C        0.24820    0.89390    0.58810    1.000
    H2       H        0.29530    0.94070    0.60920    1.000
    C3       C        0.18890    0.90910    0.49400    1.000
    H3       H        0.18600    0.96820    0.43960    1.000
    C4       C        0.06000    0.79700    0.40750    1.000
    H4       H        0.00160    0.88190    0.37680    1.000
    H5       H        0.00530    0.75530    0.43620    1.000
    C5       C        0.14900    0.71000    0.31840    1.000
    C6       C        0.23030    0.57380    0.37140    1.000
    H6       H        0.28730    0.58440    0.42370    1.000
    H7       H        0.16960    0.54520    0.40850    1.000
    C7       C        0.27320    0.39860    0.23220    1.000
    H8       H        0.18670    0.41120    0.21910    1.000
    C8       C        0.05720    0.69500    0.23520    1.000
    H9       H        0.10700    0.66700    0.17010    1.000
    H10      H        0.03300    0.64500    0.25900    1.000
    C9       C        0.81050    0.81360    0.22010    1.000
    H11      H        0.79100    0.74360    0.24290    1.000
    C10      C        0.23650    0.77900    0.27490    1.000
    H12      H        0.18070    0.87270    0.26710    1.000
    H13      H        0.30220    0.76840    0.32770    1.000
    C11      C        0.25490    0.77220    0.07670    1.000
    H14      H        0.16610    0.82500    0.06360    1.000
    C12      C        0.46280    0.65620    0.05540    1.000
    H15      H        0.54510    0.61220    0.02380    1.000
    C13      C        0.43920    0.66160    0.16050    1.000
    H16      H        0.50140    0.62340    0.21350    1.000
    C14      C        0.91620    0.93520    0.17750    1.000
    H17      H        0.98430    0.96170    0.16630    1.000
    C15      C        0.72300    0.93540    0.18920    1.000
    H18      H        0.63180    0.96330    0.18630    1.000
    C16      C        0.38490    0.30800    0.18760    1.000
    H19      H        0.38780    0.24800    0.13740    1.000
    C17      C        0.44640    0.41500    0.29700    1.000
    H20      H        0.49860    0.44240    0.33730    1.000
    C18      C        0.13440    0.63800    0.88490    1.000
    C19      C        0.06370    0.56570    0.94290    1.000
    C20      C        0.93610    0.63480    0.98290    1.000
    H21      H        0.89330    0.72570    0.97180    1.000
    C21      C        0.12700    0.43050    0.96120    1.000
    H22      H        0.21240    0.38360    0.93570    1.000
    Cd2      Cd       0.70732    0.23894    0.17541    1.000
    O3       O        0.91830    0.23690    0.11740    1.000
    O4       O        0.75450    0.42840    0.15560    1.000
    N9       N        0.77140    0.20150    0.35140    1.000
    N10      N        0.86690    0.18060    0.50580    1.000
    N11      N        0.69390    0.26600    0.82610    1.000
    N12      N        0.06590    0.18700    0.78850    1.000
    N13      N        0.68690    0.53180    0.69930    1.000
    N14      N        0.50660    0.68080    0.77110    1.000
    N15      N        0.21050    0.98770    0.83770    1.000
    N16      N        0.65400    0.27410    0.99770    1.000
    C22      C        0.84150    0.24400    0.41030    1.000
    H23      H        0.86950    0.30870    0.38910    1.000
    C23      C        0.75180    0.10610    0.41190    1.000
    H24      H        0.70470    0.05930    0.39080    1.000
    C24      C        0.81110    0.09090    0.50600    1.000
    H25      H        0.81400    0.03180    0.56040    1.000
    C25      C        0.94000    0.20300    0.59250    1.000
    H26      H        0.99840    0.11810    0.62320    1.000
    H27      H        0.99470    0.24470    0.56380    1.000
    C26      C        0.85100    0.29000    0.68160    1.000
    C27      C        0.76970    0.42620    0.62860    1.000
    H28      H        0.71270    0.41560    0.57630    1.000
    H29      H        0.83040    0.45480    0.59150    1.000
    C28      C        0.72680    0.60140    0.76780    1.000
    H30      H        0.81330    0.58880    0.78090    1.000
    C29      C        0.94280    0.30500    0.76480    1.000
    H31      H        0.89300    0.33300    0.82990    1.000
    H32      H        0.96700    0.35500    0.74100    1.000
    C30      C        0.18950    0.18640    0.77990    1.000
    H33      H        0.20900    0.25640    0.75710    1.000
    C31      C        0.76350    0.22100    0.72510    1.000
    H34      H        0.81930    0.12730    0.73290    1.000
    H35      H        0.69780    0.23160    0.67230    1.000
    C32      C        0.74510    0.22780    0.92330    1.000
    H36      H        0.83390    0.17500    0.93640    1.000
    C33      C        0.53720    0.34380    0.94460    1.000
    H37      H        0.45490    0.38780    0.97620    1.000
    C34      C        0.56080    0.33840    0.83950    1.000
    H38      H        0.49860    0.37660    0.78650    1.000
    C35      C        0.08380    0.06480    0.82250    1.000
    H39      H        0.01570    0.03830    0.83370    1.000
    C36      C        0.27700    0.06460    0.81080    1.000
    H40      H        0.36820    0.03670    0.81370    1.000
    C37      C        0.61510    0.69200    0.81240    1.000
    H41      H        0.61220    0.75200    0.86260    1.000
    C38      C        0.55360    0.58500    0.70300    1.000
    H42      H        0.50140    0.55760    0.66270    1.000
    C39      C        0.86560    0.36200    0.11510    1.000
    C40      C        0.93630    0.43430    0.05710    1.000
    C41      C        0.06390    0.36520    0.01710    1.000
    H43      H        0.10670    0.27430    0.02820    1.000
    C42      C        0.87300    0.56950    0.03880    1.000
    H44      H        0.78760    0.61640    0.06430    1.000
