# CIF file generated by openbabel 3.1.0, see https://openbabel.org
data_I
_chemical_name_common 'image0'
_cell_length_a 15.3805
_cell_length_b 8.4335
_cell_length_c 13.8969
_cell_angle_alpha 90
_cell_angle_beta 107.583
_cell_angle_gamma 90
_space_group_name_H-M_alt 'P 1'
_space_group_name_Hall 'P 1'
loop_
    _symmetry_equiv_pos_as_xyz
    x,y,z
loop_
    _atom_site_label
    _atom_site_type_symbol
    _atom_site_fract_x
    _atom_site_fract_y
    _atom_site_fract_z
    _atom_site_occupancy
    C1       C        0.68696    0.43878    0.43054    1.000
    N1       N        0.64609    0.54778    0.39134    1.000
    C2       C        0.66491    0.12016    0.39849    1.000
    N2       N        0.61384    0.04506    0.33794    1.000
    N3       N        0.88911    0.24558    0.37880    1.000
    C3       C        0.83635    0.24825    0.42231    1.000
    C4       C        0.18696    0.93878    0.43054    1.000
    N4       N        0.14609    0.04778    0.39134    1.000
    C5       C        0.16491    0.62016    0.39849    1.000
    N5       N        0.11384    0.54506    0.33794    1.000
    N6       N        0.38911    0.74558    0.37880    1.000
    C6       C        0.33635    0.74825    0.42231    1.000
    C7       C        0.31304    0.43878    0.06946    1.000
    N7       N        0.35391    0.54778    0.10866    1.000
    C8       C        0.33509    0.12016    0.10151    1.000
    N8       N        0.38616    0.04506    0.16206    1.000
    N9       N        0.11089    0.24558    0.12120    1.000
    C9       C        0.16365    0.24825    0.07769    1.000
    C10      C        0.81304    0.93878    0.06946    1.000
    N10      N        0.85391    0.04778    0.10866    1.000
    C11      C        0.83509    0.62016    0.10151    1.000
    N11      N        0.88616    0.54506    0.16206    1.000
    N12      N        0.61089    0.74558    0.12120    1.000
    C12      C        0.66365    0.74825    0.07769    1.000
    C13      C        0.31304    0.56122    0.56946    1.000
    N13      N        0.35391    0.45222    0.60866    1.000
    C14      C        0.33509    0.87984    0.60151    1.000
    N14      N        0.38616    0.95494    0.66206    1.000
    N15      N        0.11089    0.75442    0.62120    1.000
    C15      C        0.16365    0.75175    0.57769    1.000
    C16      C        0.81304    0.06122    0.56946    1.000
    N16      N        0.85391    0.95222    0.60866    1.000
    C17      C        0.83509    0.37984    0.60151    1.000
    N17      N        0.88616    0.45494    0.66206    1.000
    N18      N        0.61089    0.25442    0.62120    1.000
    C18      C        0.66365    0.25175    0.57769    1.000
    C19      C        0.68696    0.56122    0.93054    1.000
    N19      N        0.64609    0.45222    0.89134    1.000
    C20      C        0.66491    0.87984    0.89849    1.000
    N20      N        0.61384    0.95494    0.83794    1.000
    N21      N        0.88911    0.75442    0.87880    1.000
    C21      C        0.83635    0.75175    0.92231    1.000
    C22      C        0.18696    0.06122    0.93054    1.000
    N22      N        0.14609    0.95222    0.89134    1.000
    C23      C        0.16491    0.37984    0.89849    1.000
    N23      N        0.11384    0.45494    0.83794    1.000
    N24      N        0.38911    0.25442    0.87880    1.000
    C24      C        0.33635    0.25175    0.92231    1.000
    K1       K        0.50000    0.78005    0.25000    1.000
    K2       K        0.00000    0.28005    0.25000    1.000
    K3       K        0.50000    0.21995    0.75000    1.000
    K4       K        0.00000    0.71995    0.75000    1.000
    Fe1      Fe       0.75000    0.25000    0.50000    1.000
    Fe2      Fe       0.25000    0.25000    0.00000    1.000
    Fe3      Fe       0.25000    0.75000    0.50000    1.000
    Fe4      Fe       0.75000    0.75000    0.00000    1.000
