# CIF file generated by openbabel 3.1.0, see https://openbabel.org
data_I
_chemical_name_common 'image0'
_cell_length_a 13.0973
_cell_length_b 13.0973
_cell_length_c 13.0973
_cell_angle_alpha 90
_cell_angle_beta 90
_cell_angle_gamma 90
_space_group_name_H-M_alt 'P 1'
_space_group_name_Hall 'P 1'
loop_
    _symmetry_equiv_pos_as_xyz
    x,y,z
loop_
    _atom_site_label
    _atom_site_type_symbol
    _atom_site_fract_x
    _atom_site_fract_y
    _atom_site_fract_z
    _atom_site_occupancy
    N1       N        0.43631    0.45599    0.13520    1.000
    N2       N        0.48052    0.46111    0.21404    1.000
    N3       N        0.52010    0.46450    0.29246    1.000
    N4       N        0.06369    0.54401    0.63520    1.000
    N5       N        0.01948    0.53889    0.71404    1.000
    N6       N        0.97990    0.53550    0.79246    1.000
    N7       N        0.56369    0.95599    0.36480    1.000
    N8       N        0.51948    0.96111    0.28596    1.000
    N9       N        0.47990    0.96450    0.20754    1.000
    N10      N        0.93631    0.04401    0.86480    1.000
    N11      N        0.98052    0.03889    0.78596    1.000
    N12      N        0.02010    0.03550    0.70754    1.000
    N13      N        0.13520    0.43631    0.45599    1.000
    N14      N        0.21404    0.48052    0.46111    1.000
    N15      N        0.29246    0.52010    0.46450    1.000
    N16      N        0.63520    0.06369    0.54401    1.000
    N17      N        0.71404    0.01948    0.53889    1.000
    N18      N        0.79246    0.97990    0.53550    1.000
    N19      N        0.36480    0.56369    0.95599    1.000
    N20      N        0.28596    0.51948    0.96111    1.000
    N21      N        0.20754    0.47990    0.96450    1.000
    N22      N        0.86480    0.93631    0.04401    1.000
    N23      N        0.78596    0.98052    0.03889    1.000
    N24      N        0.70754    0.02010    0.03550    1.000
    N25      N        0.45599    0.13520    0.43631    1.000
    N26      N        0.46111    0.21404    0.48052    1.000
    N27      N        0.46450    0.29246    0.52010    1.000
    N28      N        0.54401    0.63520    0.06369    1.000
    N29      N        0.53889    0.71404    0.01948    1.000
    N30      N        0.53550    0.79246    0.97990    1.000
    N31      N        0.95599    0.36480    0.56369    1.000
    N32      N        0.96111    0.28596    0.51948    1.000
    N33      N        0.96450    0.20754    0.47990    1.000
    N34      N        0.04401    0.86480    0.93631    1.000
    N35      N        0.03889    0.78596    0.98052    1.000
    N36      N        0.03550    0.70754    0.02010    1.000
    N37      N        0.56369    0.54401    0.86480    1.000
    N38      N        0.51948    0.53889    0.78596    1.000
    N39      N        0.47990    0.53550    0.70754    1.000
    N40      N        0.93631    0.45599    0.36480    1.000
    N41      N        0.98052    0.46111    0.28596    1.000
    N42      N        0.02010    0.46450    0.20754    1.000
    N43      N        0.43631    0.04401    0.63520    1.000
    N44      N        0.48052    0.03889    0.71404    1.000
    N45      N        0.52010    0.03550    0.79246    1.000
    N46      N        0.06369    0.95599    0.13520    1.000
    N47      N        0.01948    0.96111    0.21404    1.000
    N48      N        0.97990    0.96450    0.29246    1.000
    N49      N        0.86480    0.56369    0.54401    1.000
    N50      N        0.78596    0.51948    0.53889    1.000
    N51      N        0.70754    0.47990    0.53550    1.000
    N52      N        0.36480    0.93631    0.45599    1.000
    N53      N        0.28596    0.98052    0.46111    1.000
    N54      N        0.20754    0.02010    0.46450    1.000
    N55      N        0.63520    0.43631    0.04401    1.000
    N56      N        0.71404    0.48052    0.03889    1.000
    N57      N        0.79246    0.52010    0.03550    1.000
    N58      N        0.13520    0.06369    0.95599    1.000
    N59      N        0.21404    0.01948    0.96111    1.000
    N60      N        0.29246    0.97990    0.96450    1.000
    N61      N        0.54401    0.86480    0.56369    1.000
    N62      N        0.53889    0.78596    0.51948    1.000
    N63      N        0.53550    0.70754    0.47990    1.000
    N64      N        0.45599    0.36480    0.93631    1.000
    N65      N        0.46111    0.28596    0.98052    1.000
    N66      N        0.46450    0.20754    0.02010    1.000
    N67      N        0.04401    0.63520    0.43631    1.000
    N68      N        0.03889    0.71404    0.48052    1.000
    N69      N        0.03550    0.79246    0.52010    1.000
    N70      N        0.95599    0.13520    0.06369    1.000
    N71      N        0.96111    0.21404    0.01948    1.000
    N72      N        0.96450    0.29246    0.97990    1.000
    Cr1      Cr       0.50000    0.50000    0.00000    1.000
    Cr2      Cr       0.00000    0.50000    0.50000    1.000
    Cr3      Cr       0.50000    0.00000    0.50000    1.000
    Cr4      Cr       0.00000    0.00000    0.00000    1.000
    K1       K        0.50000    0.50000    0.50000    1.000
    K2       K        0.00000    0.50000    0.00000    1.000
    K3       K        0.50000    0.00000    0.00000    1.000
    K4       K        0.00000    0.00000    0.50000    1.000
