# CIF file generated by openbabel 3.1.0, see https://openbabel.org
data_I
_chemical_name_common 'image0'
_cell_length_a 8.9884
_cell_length_b 10.326
_cell_length_c 11.917
_cell_angle_alpha 66.98
_cell_angle_beta 89.01
_cell_angle_gamma 78.98
_space_group_name_H-M_alt 'P 1'
_space_group_name_Hall 'P 1'
loop_
    _symmetry_equiv_pos_as_xyz
    x,y,z
loop_
    _atom_site_label
    _atom_site_type_symbol
    _atom_site_fract_x
    _atom_site_fract_y
    _atom_site_fract_z
    _atom_site_occupancy
    Zn1      Zn       0.88980    0.00457    0.76225    1.000
    Zn2      Zn       0.41068    0.02832    0.64862    1.000
    Zn3      Zn       0.86789    0.63274    0.07222    1.000
    P1       P        0.61545    0.85492    0.88558    1.000
    H1       H        0.51700    0.89500    0.95200    1.000
    P2       P        0.67644    0.14251    0.51047    1.000
    H2       H        0.68100    0.26000    0.40400    1.000
    P3       P        0.15528    0.14548    0.80171    1.000
    H3       H        0.23300    0.04400    0.90100    1.000
    P4       P        0.11062    0.69585    0.86768    1.000
    H4       H        0.25200    0.72400    0.87400    1.000
    O1       O        0.71890    0.96120    0.85820    1.000
    O2       O        0.81790    0.12050    0.58990    1.000
    O3       O        0.99340    0.12450    0.80620    1.000
    O4       O        0.01760    0.82760    0.76680    1.000
    O5       O        0.52810    0.86370    0.77460    1.000
    O6       O        0.52830    0.17750    0.56590    1.000
    O7       O        0.68280    0.01540    0.47580    1.000
    O8       O        0.23100    0.12890    0.69210    1.000
    O9       O        0.69230    0.70090    0.95770    1.000
    O10      O        0.12550    0.57010    0.83170    1.000
    O11      O        0.16460    0.29040    0.80250    1.000
    O12      O        0.05730    0.66810    0.99500    1.000
    Zn4      Zn       0.11020    0.99543    0.23775    1.000
    Zn5      Zn       0.58932    0.97168    0.35138    1.000
    Zn6      Zn       0.13211    0.36726    0.92778    1.000
    P5       P        0.38455    0.14508    0.11442    1.000
    H5       H        0.48300    0.10500    0.04800    1.000
    P6       P        0.32356    0.85749    0.48953    1.000
    H6       H        0.31900    0.74000    0.59600    1.000
    P7       P        0.84472    0.85452    0.19829    1.000
    H7       H        0.76700    0.95600    0.09900    1.000
    P8       P        0.88938    0.30415    0.13232    1.000
    H8       H        0.74800    0.27600    0.12600    1.000
    O13      O        0.28110    0.03880    0.14180    1.000
    O14      O        0.18210    0.87950    0.41010    1.000
    O15      O        0.00660    0.87550    0.19380    1.000
    O16      O        0.98240    0.17240    0.23320    1.000
    O17      O        0.47190    0.13630    0.22540    1.000
    O18      O        0.47170    0.82250    0.43410    1.000
    O19      O        0.31720    0.98460    0.52420    1.000
    O20      O        0.76900    0.87110    0.30790    1.000
    O21      O        0.30770    0.29910    0.04230    1.000
    O22      O        0.87450    0.42990    0.16830    1.000
    O23      O        0.83540    0.70960    0.19750    1.000
    O24      O        0.94270    0.33190    0.00500    1.000
