# CIF file generated by openbabel 3.1.0, see https://openbabel.org
data_I
_chemical_name_common 'image0'
_cell_length_a 14.6235
_cell_length_b 12.2856
_cell_length_c 14.1355
_cell_angle_alpha 90
_cell_angle_beta 106.068
_cell_angle_gamma 90
_space_group_name_H-M_alt 'P 1'
_space_group_name_Hall 'P 1'
loop_
    _symmetry_equiv_pos_as_xyz
    x,y,z
loop_
    _atom_site_label
    _atom_site_type_symbol
    _atom_site_fract_x
    _atom_site_fract_y
    _atom_site_fract_z
    _atom_site_occupancy
    Zn1      Zn       0.34110    0.97750    0.64670    1.000
    O1       O        0.24650    0.09810    0.66470    1.000
    O2       O        0.17280    0.24960    0.61110    1.000
    O3       O        0.47280    0.24690    0.29090    1.000
    O4       O        0.53870    0.10970    0.38570    1.000
    N1       N        0.34700    0.09670    0.53980    1.000
    C1       C        0.29540    0.18750    0.54220    1.000
    C2       C        0.29640    0.27550    0.48320    1.000
    H1       H        0.25760    0.33540    0.48350    1.000
    C3       C        0.35610    0.27330    0.42360    1.000
    H2       H        0.36040    0.33410    0.38590    1.000
    C4       C        0.40890    0.18370    0.41890    1.000
    C5       C        0.39850    0.09360    0.47500    1.000
    H3       H        0.42850    0.02890    0.46710    1.000
    C6       C        0.47710    0.18200    0.35800    1.000
    C7       C        0.23350    0.18210    0.61030    1.000
    Zn2      Zn       0.42280    0.75590    0.79970    1.000
    O5       O        0.40790    0.92530    0.78620    1.000
    O6       O        0.47730    0.08650    0.82350    1.000
    O7       O        0.82940    0.79050    0.17570    1.000
    O8       O        0.74910    0.63890    0.10970    1.000
    N2       N        0.54290    0.81430    0.91100    1.000
    C8       C        0.55140    0.92340    0.91210    1.000
    C9       C        0.62080    0.97400    0.98060    1.000
    H4       H        0.62140    0.04970    0.98210    1.000
    C10      C        0.68880    0.92040    0.04650    1.000
    H5       H        0.73720    0.95750    0.09160    1.000
    C11      C        0.68530    0.80680    0.04580    1.000
    C12      C        0.61170    0.75610    0.97750    1.000
    H6       H        0.60860    0.68050    0.97650    1.000
    C13      C        0.76190    0.74380    0.11520    1.000
    C14      C        0.47360    0.98600    0.83590    1.000
    Zn3      Zn       0.15890    0.47750    0.85330    1.000
    O9       O        0.25350    0.59810    0.83530    1.000
    O10      O        0.32720    0.74960    0.88890    1.000
    O11      O        0.02720    0.74690    0.20910    1.000
    O12      O        0.96130    0.60970    0.11430    1.000
    N3       N        0.15300    0.59670    0.96020    1.000
    C15      C        0.20460    0.68750    0.95780    1.000
    C16      C        0.20360    0.77550    0.01680    1.000
    H7       H        0.24240    0.83540    0.01650    1.000
    C17      C        0.14390    0.77330    0.07640    1.000
    H8       H        0.13960    0.83410    0.11410    1.000
    C18      C        0.09110    0.68370    0.08110    1.000
    C19      C        0.10150    0.59360    0.02500    1.000
    H9       H        0.07150    0.52890    0.03290    1.000
    C20      C        0.02290    0.68200    0.14200    1.000
    C21      C        0.26650    0.68210    0.88970    1.000
    Zn4      Zn       0.07720    0.25590    0.70030    1.000
    O13      O        0.09210    0.42530    0.71380    1.000
    O14      O        0.02270    0.58650    0.67650    1.000
    O15      O        0.67060    0.29050    0.32430    1.000
    O16      O        0.75090    0.13890    0.39030    1.000
    N4       N        0.95710    0.31430    0.58900    1.000
    C22      C        0.94860    0.42340    0.58790    1.000
    C23      C        0.87920    0.47400    0.51940    1.000
    H10      H        0.87860    0.54970    0.51790    1.000
    C24      C        0.81120    0.42040    0.45350    1.000
    H11      H        0.76280    0.45750    0.40840    1.000
    C25      C        0.81470    0.30680    0.45420    1.000
    C26      C        0.88830    0.25610    0.52250    1.000
    H12      H        0.89140    0.18050    0.52350    1.000
    C27      C        0.73810    0.24380    0.38480    1.000
    C28      C        0.02640    0.48600    0.66410    1.000
    Zn5      Zn       0.65890    0.02250    0.35330    1.000
    O17      O        0.75350    0.90190    0.33530    1.000
    O18      O        0.82720    0.75040    0.38890    1.000
    O19      O        0.52720    0.75310    0.70910    1.000
    O20      O        0.46130    0.89030    0.61430    1.000
    N5       N        0.65300    0.90330    0.46020    1.000
    C29      C        0.70460    0.81250    0.45780    1.000
    C30      C        0.70360    0.72450    0.51680    1.000
    H13      H        0.74240    0.66460    0.51650    1.000
    C31      C        0.64390    0.72670    0.57640    1.000
    H14      H        0.63960    0.66590    0.61410    1.000
    C32      C        0.59110    0.81630    0.58110    1.000
    C33      C        0.60150    0.90640    0.52500    1.000
    H15      H        0.57150    0.97110    0.53290    1.000
    C34      C        0.52290    0.81800    0.64200    1.000
    C35      C        0.76650    0.81790    0.38970    1.000
    Zn6      Zn       0.57720    0.24410    0.20030    1.000
    O21      O        0.59210    0.07470    0.21380    1.000
    O22      O        0.52270    0.91350    0.17650    1.000
    O23      O        0.17060    0.20950    0.82430    1.000
    O24      O        0.25090    0.36110    0.89030    1.000
    N6       N        0.45710    0.18570    0.08900    1.000
    C36      C        0.44860    0.07660    0.08790    1.000
    C37      C        0.37920    0.02600    0.01940    1.000
    H16      H        0.37860    0.95030    0.01790    1.000
    C38      C        0.31120    0.07960    0.95350    1.000
    H17      H        0.26280    0.04250    0.90840    1.000
    C39      C        0.31470    0.19320    0.95420    1.000
    C40      C        0.38830    0.24390    0.02250    1.000
    H18      H        0.39140    0.31950    0.02350    1.000
    C41      C        0.23810    0.25620    0.88480    1.000
    C42      C        0.52640    0.01400    0.16410    1.000
    Zn7      Zn       0.84110    0.52250    0.14670    1.000
    O25      O        0.74650    0.40190    0.16470    1.000
    O26      O        0.67280    0.25040    0.11110    1.000
    O27      O        0.97280    0.25310    0.79090    1.000
    O28      O        0.03870    0.39030    0.88570    1.000
    N7       N        0.84700    0.40330    0.03980    1.000
    C43      C        0.79540    0.31250    0.04220    1.000
    C44      C        0.79640    0.22450    0.98320    1.000
    H19      H        0.75760    0.16460    0.98350    1.000
    C45      C        0.85610    0.22670    0.92360    1.000
    H20      H        0.86040    0.16590    0.88590    1.000
    C46      C        0.90890    0.31630    0.91890    1.000
    C47      C        0.89850    0.40640    0.97500    1.000
    H21      H        0.92850    0.47110    0.96710    1.000
    C48      C        0.97710    0.31800    0.85800    1.000
    C49      C        0.73350    0.31790    0.11030    1.000
    Zn8      Zn       0.92280    0.74410    0.29970    1.000
    O29      O        0.90790    0.57470    0.28620    1.000
    O30      O        0.97730    0.41350    0.32350    1.000
    O31      O        0.32940    0.70950    0.67570    1.000
    O32      O        0.24910    0.86110    0.60970    1.000
    N8       N        0.04290    0.68570    0.41100    1.000
    C50      C        0.05140    0.57660    0.41210    1.000
    C51      C        0.12080    0.52600    0.48060    1.000
    H22      H        0.12140    0.45030    0.48210    1.000
    C52      C        0.18880    0.57960    0.54650    1.000
    H23      H        0.23720    0.54250    0.59160    1.000
    C53      C        0.18530    0.69320    0.54580    1.000
    C54      C        0.11170    0.74390    0.47750    1.000
    H24      H        0.10860    0.81950    0.47650    1.000
    C55      C        0.26190    0.75620    0.61520    1.000
    C56      C        0.97360    0.51400    0.33590    1.000
