# CIF file generated by openbabel 3.1.0, see https://openbabel.org
data_I
_chemical_name_common 'NIMPEG01_clean'
_cell_length_a 15.01
_cell_length_b 16.62
_cell_length_c 19.29
_cell_angle_alpha 102.288
_cell_angle_beta 91.786
_cell_angle_gamma 93.3
_space_group_name_H-M_alt 'P 1'
_space_group_name_Hall 'P 1'
loop_
    _symmetry_equiv_pos_as_xyz
    x,y,z
loop_
    _atom_site_label
    _atom_site_type_symbol
    _atom_site_fract_x
    _atom_site_fract_y
    _atom_site_fract_z
    _atom_site_occupancy
    Cu1      Cu       0.47274    0.45714    0.04716    1.000
    Cu2      Cu       0.52726    0.54286    0.95284    1.000
    Cu3      Cu       0.45642    0.49336    0.55771    1.000
    Cu4      Cu       0.54358    0.50664    0.44229    1.000
    H1       H        0.98430    0.54920    0.18860    1.000
    H2       H        0.65060    0.11030    0.89050    1.000
    H3       H        0.90630    0.82060    0.25220    1.000
    H4       H        0.14510    0.83660    0.23590    1.000
    H5       H        0.12380    0.82560    0.38320    1.000
    H6       H        0.69050    0.53290    0.20480    1.000
    H7       H        0.44600    0.01240    0.33040    1.000
    H8       H        0.09370    0.17940    0.74780    1.000
    H9       H        0.88990    0.72430    0.13460    1.000
    H10      H        0.55400    0.98760    0.66960    1.000
    H11      H        0.18880    0.40470    0.71930    1.000
    H12      H        0.90800    0.33680    0.52910    1.000
    H13      H        0.30950    0.46710    0.79520    1.000
    H14      H        0.01980    0.97540    0.71150    1.000
    H15      H        0.72780    0.87600    0.56560    1.000
    H16      H        0.85490    0.16340    0.76410    1.000
    H17      H        0.57180    0.71970    0.70320    1.000
    H18      H        0.06910    0.94200    0.43450    1.000
    H19      H        0.58760    0.22590    0.95720    1.000
    H20      H        0.03310    0.04380    0.58240    1.000
    H21      H        0.66590    0.35980    0.81440    1.000
    H22      H        0.34350    0.25200    0.48810    1.000
    H23      H        0.72880    0.24410    0.74770    1.000
    H24      H        0.46210    0.92570    0.27690    1.000
    H25      H        0.04340    0.02560    0.41260    1.000
    H26      H        0.02860    0.06130    0.76820    1.000
    H27      H        0.97140    0.93870    0.23180    1.000
    H28      H        0.78390    0.39290    0.48580    1.000
    H29      H        0.08480    0.56100    0.22490    1.000
    H30      H        0.64300    0.84770    0.75690    1.000
    H31      H        0.09200    0.66320    0.47090    1.000
    H32      H        0.81120    0.59530    0.28070    1.000
    H33      H        0.95660    0.97440    0.58740    1.000
    H34      H        0.23070    0.33820    0.94130    1.000
    H35      H        0.42820    0.28030    0.29680    1.000
    H36      H        0.35700    0.15230    0.24310    1.000
    H37      H        0.53790    0.07430    0.72310    1.000
    H38      H        0.27220    0.12400    0.43440    1.000
    H39      H        0.96690    0.95620    0.41760    1.000
    H40      H        0.14960    0.06700    0.35940    1.000
    H41      H        0.78950    0.34430    0.71600    1.000
    H42      H        0.33470    0.59970    0.32730    1.000
    H43      H        0.85040    0.93300    0.64060    1.000
    H44      H        0.66530    0.40030    0.67270    1.000
    H45      H        0.09340    0.04580    0.70310    1.000
    H46      H        0.27120    0.75590    0.25230    1.000
    H47      H        0.98020    0.02460    0.28850    1.000
    H48      H        0.93090    0.05800    0.56550    1.000
    H49      H        0.87620    0.17440    0.61680    1.000
    H50      H        0.21610    0.60710    0.51420    1.000
    H51      H        0.41240    0.77410    0.04280    1.000
    H52      H        0.91520    0.43900    0.77510    1.000
    H53      H        0.76930    0.66180    0.05870    1.000
    H54      H        0.65650    0.74800    0.51190    1.000
    H55      H        0.33410    0.64020    0.18560    1.000
    H56      H        0.21050    0.65570    0.28400    1.000
    H57      H        0.11010    0.27570    0.86540    1.000
    H58      H        0.34940    0.88970    0.10950    1.000
    H59      H        0.90660    0.95420    0.29690    1.000
    H60      H        0.01570    0.45080    0.81140    1.000
    C1       C        0.05270    0.20760    0.72480    1.000
    C2       C        0.70010    0.24050    0.79020    1.000
    C3       C        0.01650    0.83660    0.31930    1.000
    C4       C        0.93260    0.29010    0.65720    1.000
    C5       C        0.73860    0.95560    0.69700    1.000
    C6       C        0.30200    0.98490    0.25460    1.000
    C7       C        0.06180    0.29300    0.73510    1.000
    C8       C        0.26900    0.42830    0.80950    1.000
    C9       C        0.71290    0.40190    0.57520    1.000
    C10      C        0.78830    0.35410    0.66930    1.000
    C11      C        0.14120    0.65030    0.44170    1.000
    C12      C        0.54480    0.01460    0.71950    1.000
    C13      C        0.34630    0.83910    0.12500    1.000
    C14      C        0.82260    0.97360    0.67370    1.000
    C15      C        0.37920    0.69630    0.10790    1.000
    C16      C        0.84940    0.68540    0.14890    1.000
    C17      C        0.86600    0.05100    0.69870    1.000
    C18      C        0.69610    0.84430    0.59360    1.000
    C19      C        0.92350    0.20460    0.64690    1.000
    C20      C        0.03850    0.92750    0.32940    1.000
    C21      C        0.28150    0.40850    0.87540    1.000
    C22      C        0.57950    0.37340    0.93140    1.000
    C23      C        0.69800    0.01510    0.74540    1.000
    C24      C        0.13400    0.94900    0.30130    1.000
    C25      C        0.19730    0.39120    0.76440    1.000
    C26      C        0.62080    0.30370    0.89210    1.000
    C27      C        0.45520    0.98540    0.28050    1.000
    C28      C        0.17740    0.02640    0.32630    1.000
    C29      C        0.64030    0.55770    0.07230    1.000
    C30      C        0.96710    0.96500    0.28200    1.000
    C31      C        0.35420    0.17250    0.29280    1.000
    C32      C        0.94730    0.79240    0.27520    1.000
    C33      C        0.02210    0.54160    0.22940    1.000
    C34      C        0.21500    0.61700    0.46740    1.000
    C35      C        0.97790    0.45840    0.77060    1.000
    C36      C        0.85880    0.34970    0.55830    1.000
    C37      C        0.33730    0.69090    0.17020    1.000
    C38      C        0.98350    0.16340    0.68070    1.000
    C39      C        0.56900    0.63770    0.56520    1.000
    C40      C        0.28710    0.59810    0.42480    1.000
    C41      C        0.66270    0.30910    0.82980    1.000
    C42      C        0.39660    0.24860    0.32470    1.000
    C43      C        0.61630    0.22960    0.91470    1.000
    C44      C        0.30790    0.12610    0.33370    1.000
    C45      C        0.97130    0.03390    0.59510    1.000
    C46      C        0.13960    0.66470    0.37340    1.000
    C47      C        0.26140    0.04440    0.30300    1.000
    C48      C        0.93820    0.70700    0.26490    1.000
    C49      C        0.28540    0.61260    0.35640    1.000
    C50      C        0.71460    0.38740    0.64360    1.000
    C51      C        0.78500    0.38300    0.53260    1.000
    C52      C        0.43100    0.36230    0.43480    1.000
    C53      C        0.17470    0.88950    0.25300    1.000
    C54      C        0.29990    0.75950    0.20980    1.000
    C55      C        0.07650    0.79540    0.35310    1.000
    C56      C        0.15060    0.31460    0.85110    1.000
    C57      C        0.34620    0.23180    0.43830    1.000
    C58      C        0.03290    0.03500    0.71800    1.000
    C59      C        0.63880    0.43490    0.54830    1.000
    C60      C        0.86040    0.33530    0.62660    1.000
    C61      C        0.86190    0.66560    0.21480    1.000
    C62      C        0.13810    0.33440    0.78520    1.000
    C63      C        0.69210    0.87390    0.66630    1.000
    C64      C        0.42050    0.62660    0.06860    1.000
    C65      C        0.39250    0.27820    0.39750    1.000
    C66      C        0.65370    0.16090    0.87500    1.000
    C67      C        0.30390    0.15570    0.40640    1.000
    C68      C        0.65380    0.76820    0.56170    1.000
    C69      C        0.36120    0.56510    0.45170    1.000
    C70      C        0.38370    0.77040    0.08530    1.000
    C71      C        0.21170    0.64590    0.33070    1.000
    C72      C        0.30440    0.83370    0.18720    1.000
    C73      C        0.60750    0.72180    0.60250    1.000
    C74      C        0.06740    0.70990    0.34280    1.000
    C75      C        0.77780    0.64830    0.10380    1.000
    C76      C        0.35970    0.44230    0.92770    1.000
    C77      C        0.64580    0.82750    0.70720    1.000
    C78      C        0.71850    0.59150    0.12460    1.000
    C79      C        0.69560    0.16630    0.81280    1.000
    C80      C        0.82530    0.11050    0.74700    1.000
    C81      C        0.80270    0.60880    0.23560    1.000
    C82      C        0.96150    0.07250    0.67060    1.000
    C83      C        0.73100    0.57170    0.19050    1.000
    C84      C        0.22220    0.35170    0.89620    1.000
    C85      C        0.25870    0.90750    0.22960    1.000
    C86      C        0.60340    0.75140    0.67530    1.000
    C87      C        0.00170    0.33430    0.70130    1.000
    C88      C        0.02870    0.96610    0.40490    1.000
    C89      C        0.74130    0.09250    0.77040    1.000
    C90      C        0.99830    0.66570    0.29870    1.000
    O1       O        0.01220    0.42350    0.70430    1.000
    O2       O        0.64330    0.45740    0.48290    1.000
    O3       O        0.56420    0.44440    0.58350    1.000
    O4       O        0.38440    0.00010    0.23230    1.000
    O5       O        0.98780    0.57650    0.29570    1.000
    O6       O        0.46200    0.63490    0.00910    1.000
    O7       O        0.35670    0.54260    0.51710    1.000
    O8       O        0.61560    0.99990    0.76770    1.000
    O9       O        0.58040    0.44210    0.90970    1.000
    O10      O        0.41490    0.49740    0.89630    1.000
    O11      O        0.58250    0.61290    0.50440    1.000
    O12      O        0.58510    0.50260    0.10370    1.000
    O13      O        0.53800    0.36510    0.99090    1.000
    O14      O        0.36950    0.42130    0.98290    1.000
    O15      O        0.63050    0.57870    0.01710    1.000
    O16      O        0.51280    0.60120    0.60400    1.000
    O17      O        0.41750    0.38710    0.49560    1.000
    O18      O        0.43580    0.55560    0.41650    1.000
    O19      O        0.48720    0.39880    0.39600    1.000
    O20      O        0.41960    0.55790    0.09030    1.000
