# CIF file generated by openbabel 3.1.0, see https://openbabel.org
data_I
_chemical_name_common 'image0'
_cell_length_a 10.137
_cell_length_b 11.802
_cell_length_c 13.768
_cell_angle_alpha 86.899
_cell_angle_beta 89.523
_cell_angle_gamma 88.343
_space_group_name_H-M_alt 'P 1'
_space_group_name_Hall 'P 1'
loop_
    _symmetry_equiv_pos_as_xyz
    x,y,z
loop_
    _atom_site_label
    _atom_site_type_symbol
    _atom_site_fract_x
    _atom_site_fract_y
    _atom_site_fract_z
    _atom_site_occupancy
    Zn1      Zn       0.15736    0.51598    0.39554    1.000
    Zn2      Zn       0.55467    0.57495    0.37833    1.000
    Zn3      Zn       0.62257    0.11009    0.88746    1.000
    P1       P        0.37500    0.34400    0.42563    1.000
    P2       P        0.67070    0.33520    0.77006    1.000
    P3       P        0.84407    0.46155    0.37929    1.000
    O1       O        0.22940    0.36040    0.40490    1.000
    O2       O        0.44430    0.45170    0.39270    1.000
    O3       O        0.40090    0.30700    0.53010    1.000
    O4       O        0.40790    0.03640    0.17300    1.000
    O5       O        0.19310    0.04180    0.17590    1.000
    O6       O        0.78210    0.39010    0.71540    1.000
    O7       O        0.71590    0.21580    0.81030    1.000
    O8       O        0.54480    0.32490    0.71550    1.000
    O9       O        0.44050    0.14510    0.91500    1.000
    O10      O        0.24320    0.21620    0.94550    1.000
    O11      O        0.73010    0.53430    0.33700    1.000
    O12      O        0.96790    0.53150    0.37210    1.000
    O13      O        0.81820    0.41310    0.48160    1.000
    O14      O        0.10330    0.36730    0.02670    1.000
    H1       H        0.14620    0.31640    0.00180    1.000
    O15      O        0.98550    0.22500    0.08470    1.000
    N1       N        0.41660    0.24620    0.25280    1.000
    N2       N        0.83940    0.36300    0.20320    1.000
    N3       N        0.55160    0.35910    0.94530    1.000
    N4       N        0.48350    0.29980    0.09820    1.000
    N5       N        0.62970    0.30310    0.23100    1.000
    N6       N        0.70140    0.36460    0.07100    1.000
    C1       C        0.51430    0.28310    0.19300    1.000
    C2       C        0.58110    0.34210    0.04190    1.000
    C3       C        0.71910    0.34320    0.16750    1.000
    C4       C        0.43940    0.22750    0.35760    1.000
    H2       H        0.53340    0.21800    0.36910    1.000
    H3       H        0.39760    0.15810    0.38080    1.000
    C5       C        0.29410    0.20680    0.21480    1.000
    H4       H        0.26940    0.25550    0.15850    1.000
    H5       H        0.22560    0.21530    0.26370    1.000
    C6       C        0.29780    0.08530    0.18560    1.000
    C7       C        0.64050    0.41650    0.87580    1.000
    H6       H        0.72370    0.42880    0.90730    1.000
    H7       H        0.60210    0.49010    0.85540    1.000
    C8       C        0.41220    0.34860    0.91880    1.000
    H8       H        0.40040    0.37750    0.85210    1.000
    H9       H        0.35810    0.39570    0.95990    1.000
    C9       C        0.36370    0.22930    0.92840    1.000
    C10      C        0.86880    0.34030    0.30610    1.000
    H10      H        0.95990    0.31360    0.31210    1.000
    H11      H        0.81340    0.27980    0.33160    1.000
    C11      C        0.94160    0.41320    0.14000    1.000
    H12      H        0.00550    0.44930    0.17930    1.000
    H13      H        0.90170    0.47100    0.09590    1.000
    C12      C        0.01120    0.32340    0.08170    1.000
    Zn4      Zn       0.84264    0.48402    0.60446    1.000
    Zn5      Zn       0.44533    0.42505    0.62167    1.000
    Zn6      Zn       0.37743    0.88991    0.11254    1.000
    P4       P        0.62500    0.65600    0.57437    1.000
    P5       P        0.32930    0.66480    0.22994    1.000
    P6       P        0.15593    0.53845    0.62071    1.000
    O16      O        0.77060    0.63960    0.59510    1.000
    O17      O        0.55570    0.54830    0.60730    1.000
    O18      O        0.59910    0.69300    0.46990    1.000
    O19      O        0.59210    0.96360    0.82700    1.000
    O20      O        0.80690    0.95820    0.82410    1.000
    O21      O        0.21790    0.60990    0.28460    1.000
    O22      O        0.28410    0.78420    0.18970    1.000
    O23      O        0.45520    0.67510    0.28450    1.000
    O24      O        0.55950    0.85490    0.08500    1.000
    O25      O        0.75680    0.78380    0.05450    1.000
    O26      O        0.26990    0.46570    0.66300    1.000
    O27      O        0.03210    0.46850    0.62790    1.000
    O28      O        0.18180    0.58690    0.51840    1.000
    O29      O        0.89670    0.63270    0.97330    1.000
    H14      H        0.85380    0.68360    0.99820    1.000
    O30      O        0.01450    0.77500    0.91530    1.000
    N7       N        0.58340    0.75380    0.74720    1.000
    N8       N        0.16060    0.63700    0.79680    1.000
    N9       N        0.44840    0.64090    0.05470    1.000
    N10      N        0.51650    0.70020    0.90180    1.000
    N11      N        0.37030    0.69690    0.76900    1.000
    N12      N        0.29860    0.63540    0.92900    1.000
    C13      C        0.48570    0.71690    0.80700    1.000
    C14      C        0.41890    0.65790    0.95810    1.000
    C15      C        0.28090    0.65680    0.83250    1.000
    C16      C        0.56060    0.77250    0.64240    1.000
    H15      H        0.46660    0.78200    0.63090    1.000
    H16      H        0.60240    0.84190    0.61920    1.000
    C17      C        0.70590    0.79320    0.78520    1.000
    H17      H        0.73060    0.74450    0.84150    1.000
    H18      H        0.77440    0.78470    0.73630    1.000
    C18      C        0.70220    0.91470    0.81440    1.000
    C19      C        0.35950    0.58350    0.12420    1.000
    H19      H        0.27630    0.57120    0.09270    1.000
    H20      H        0.39790    0.50990    0.14460    1.000
    C20      C        0.58780    0.65140    0.08120    1.000
    H21      H        0.59960    0.62250    0.14790    1.000
    H22      H        0.64190    0.60430    0.04010    1.000
    C21      C        0.63630    0.77070    0.07160    1.000
    C22      C        0.13120    0.65970    0.69390    1.000
    H23      H        0.04010    0.68640    0.68790    1.000
    H24      H        0.18660    0.72020    0.66840    1.000
    C23      C        0.05840    0.58680    0.86000    1.000
    H25      H        0.99450    0.55070    0.82070    1.000
    H26      H        0.09830    0.52900    0.90410    1.000
    C24      C        0.98880    0.67660    0.91830    1.000
