# CIF file generated by openbabel 3.1.0, see https://openbabel.org
data_I
_chemical_name_common 'ZAZBUZ_clean'
_cell_length_a 6.605
_cell_length_b 10.4478
_cell_length_c 11.0881
_cell_angle_alpha 62.064
_cell_angle_beta 73.41
_cell_angle_gamma 78.404
_space_group_name_H-M_alt 'P 1'
_space_group_name_Hall 'P 1'
loop_
    _symmetry_equiv_pos_as_xyz
    x,y,z
loop_
    _atom_site_label
    _atom_site_type_symbol
    _atom_site_fract_x
    _atom_site_fract_y
    _atom_site_fract_z
    _atom_site_occupancy
    Cu1      Cu       0.00000    0.00000    0.50000    1.000
    Cu2      Cu       0.50000    0.00000    0.50000    1.000
    H1       H        0.58670    0.73100    0.44290    1.000
    H2       H        0.14620    0.44530    0.57760    1.000
    H3       H        0.34780    0.04650    0.87280    1.000
    H4       H        0.76380    0.95030    0.90830    1.000
    H5       H        0.41330    0.26900    0.55710    1.000
    H6       H        0.85380    0.55470    0.42240    1.000
    H7       H        0.65220    0.95350    0.12720    1.000
    H8       H        0.23620    0.04970    0.09170    1.000
    C1       C        0.13630    0.99610    0.72890    1.000
    C2       C        0.16470    0.71770    0.52600    1.000
    C3       C        0.55140    0.63710    0.46630    1.000
    C4       C        0.06550    0.99870    0.86970    1.000
    C5       C        0.34020    0.60540    0.51320    1.000
    C6       C        0.29010    0.46740    0.54630    1.000
    C7       C        0.20630    0.02770    0.92440    1.000
    C8       C        0.86000    0.97070    0.94530    1.000
    C9       C        0.86370    0.00390    0.27110    1.000
    C10      C        0.83530    0.28230    0.47400    1.000
    C11      C        0.44860    0.36290    0.53370    1.000
    C12      C        0.93450    0.00130    0.13030    1.000
    C13      C        0.65980    0.39460    0.48680    1.000
    C14      C        0.70990    0.53260    0.45370    1.000
    C15      C        0.79370    0.97230    0.07560    1.000
    C16      C        0.14000    0.02930    0.05470    1.000
    O1       O        0.32920    0.01250    0.66980    1.000
    O2       O        0.21300    0.83240    0.52070    1.000
    O3       O        0.99770    0.97800    0.68410    1.000
    O4       O        0.98110    0.69190    0.54050    1.000
    O5       O        0.67080    0.98750    0.33020    1.000
    O6       O        0.78700    0.16760    0.47930    1.000
    O7       O        0.00230    0.02200    0.31590    1.000
    O8       O        0.01890    0.30810    0.45950    1.000
