# CIF file generated by openbabel 3.1.0, see https://openbabel.org
data_I
_chemical_name_common 'PEVZAT_clean'
_cell_length_a 7.3167
_cell_length_b 9.6202
_cell_length_c 11.3957
_cell_angle_alpha 96.9143
_cell_angle_beta 90
_cell_angle_gamma 112.351
_space_group_name_H-M_alt 'P 1'
_space_group_name_Hall 'P 1'
loop_
    _symmetry_equiv_pos_as_xyz
    x,y,z
loop_
    _atom_site_label
    _atom_site_type_symbol
    _atom_site_fract_x
    _atom_site_fract_y
    _atom_site_fract_z
    _atom_site_occupancy
    Co1      Co       0.94134    0.50230    0.99650    1.000
    Co2      Co       0.43904    0.49770    0.00350    1.000
    H1       H        0.93410    0.29380    0.76850    1.000
    H2       H        0.92800    0.28640    0.56440    1.000
    H3       H        0.95000    0.71660    0.60820    1.000
    H4       H        0.94410    0.70920    0.81130    1.000
    H5       H        0.12630    0.71840    0.22940    1.000
    H6       H        0.12850    0.72380    0.43290    1.000
    H7       H        0.75500    0.28240    0.38580    1.000
    H8       H        0.76600    0.28920    0.18320    1.000
    H9       H        0.32620    0.99700    0.10200    1.000
    H10      H        0.57800    0.97800    0.19370    1.000
    H11      H        0.64030    0.70620    0.23150    1.000
    H12      H        0.64160    0.71360    0.43560    1.000
    H13      H        0.23340    0.28340    0.39180    1.000
    H14      H        0.23490    0.29080    0.18870    1.000
    H15      H        0.40790    0.28160    0.77060    1.000
    H16      H        0.40470    0.27620    0.56710    1.000
    H17      H        0.47260    0.71760    0.61420    1.000
    H18      H        0.47680    0.71080    0.81680    1.000
    H19      H        0.32920    0.00300    0.89800    1.000
    H20      H        0.60000    0.02200    0.80630    1.000
    C1       C        0.93603    0.38026    0.73540    1.000
    C2       C        0.93476    0.37552    0.61340    1.000
    C3       C        0.94344    0.50288    0.56340    1.000
    C4       C        0.94622    0.62824    0.63910    1.000
    C5       C        0.94344    0.62308    0.76050    1.000
    C6       C        0.04978    0.62876    0.26180    1.000
    C7       C        0.05240    0.63280    0.38360    1.000
    C8       C        0.94321    0.50322    0.43360    1.000
    C9       C        0.83334    0.37348    0.35590    1.000
    C10      C        0.83962    0.37884    0.23480    1.000
    C11      C        0.33804    0.79008    0.03200    1.000
    C12      C        0.42531    0.96522    0.05830    1.000
    C13      C        0.55577    0.61974    0.26460    1.000
    C14      C        0.55924    0.62448    0.38660    1.000
    C15      C        0.44056    0.49712    0.43660    1.000
    C16      C        0.31798    0.37176    0.36090    1.000
    C17      C        0.32036    0.37692    0.23950    1.000
    C18      C        0.42102    0.37124    0.73820    1.000
    C19      C        0.41960    0.36720    0.61640    1.000
    C20      C        0.43999    0.49678    0.56640    1.000
    C21      C        0.45986    0.62652    0.64410    1.000
    C22      C        0.46078    0.62116    0.76520    1.000
    C23      C        0.54796    0.20992    0.96800    1.000
    C24      C        0.46009    0.03478    0.94170    1.000
    N1       N        0.93971    0.50182    0.80916    1.000
    N2       N        0.94450    0.50440    0.18708    1.000
    N3       N        0.43789    0.49818    0.19084    1.000
    N4       N        0.44010    0.49560    0.81292    1.000
    O1       O        0.15216    0.73012    0.00970    1.000
    O2       O        0.45512    0.72524    0.03500    1.000
    O3       O        0.60107    0.01754    0.13070    1.000
    O4       O        0.42204    0.26988    0.99030    1.000
    O5       O        0.72988    0.27476    0.96500    1.000
    O6       O        0.58353    0.98246    0.86930    1.000
    F1       F        0.14190    0.40540    0.99020    1.000
    F2       F        0.73650    0.59460    0.00980    1.000
