# CIF file generated by openbabel 3.1.0, see https://openbabel.org
data_I
_chemical_name_common 'image0'
_cell_length_a 16.49
_cell_length_b 16.49
_cell_length_c 15.356
_cell_angle_alpha 90
_cell_angle_beta 90
_cell_angle_gamma 120
_space_group_name_H-M_alt 'P 1'
_space_group_name_Hall 'P 1'
loop_
    _symmetry_equiv_pos_as_xyz
    x,y,z
loop_
    _atom_site_label
    _atom_site_type_symbol
    _atom_site_fract_x
    _atom_site_fract_y
    _atom_site_fract_z
    _atom_site_occupancy
    O1       O        0.34560    0.51890    0.65650    1.000
    C1       C        0.40960    0.44770    0.53090    1.000
    H1       H        0.34760    0.41260    0.54880    1.000
    H2       H        0.14830    0.36190    0.78700    1.000
    O2       O        0.48110    0.82670    0.65650    1.000
    C2       C        0.55230    0.96190    0.53090    1.000
    H3       H        0.58740    0.93500    0.54880    1.000
    H4       H        0.63810    0.78640    0.78700    1.000
    O3       O        0.17330    0.65440    0.65650    1.000
    C3       C        0.03810    0.59040    0.53090    1.000
    H5       H        0.06500    0.65240    0.54880    1.000
    H6       H        0.21360    0.85170    0.78700    1.000
    O4       O        0.65440    0.48110    0.15650    1.000
    C4       C        0.59040    0.55230    0.03090    1.000
    H7       H        0.65240    0.58740    0.04880    1.000
    H8       H        0.85170    0.63810    0.28700    1.000
    O5       O        0.51890    0.17330    0.15650    1.000
    C5       C        0.44770    0.03810    0.03090    1.000
    H9       H        0.41260    0.06500    0.04880    1.000
    H10      H        0.36190    0.21360    0.28700    1.000
    O6       O        0.82670    0.34560    0.15650    1.000
    C6       C        0.96190    0.40960    0.03090    1.000
    H11      H        0.93500    0.34760    0.04880    1.000
    H12      H        0.78640    0.14830    0.28700    1.000
    O7       O        0.51890    0.34560    0.34350    1.000
    C7       C        0.44770    0.40960    0.46910    1.000
    H13      H        0.41260    0.34760    0.45120    1.000
    H14      H        0.36190    0.14830    0.21300    1.000
    O8       O        0.82670    0.48110    0.34350    1.000
    C8       C        0.96190    0.55230    0.46910    1.000
    H15      H        0.93500    0.58740    0.45120    1.000
    H16      H        0.78640    0.63810    0.21300    1.000
    O9       O        0.65440    0.17330    0.34350    1.000
    C9       C        0.59040    0.03810    0.46910    1.000
    H17      H        0.65240    0.06500    0.45120    1.000
    H18      H        0.85170    0.21360    0.21300    1.000
    O10      O        0.48110    0.65440    0.84350    1.000
    C10      C        0.55230    0.59040    0.96910    1.000
    H19      H        0.58740    0.65240    0.95120    1.000
    H20      H        0.63810    0.85170    0.71300    1.000
    O11      O        0.17330    0.51890    0.84350    1.000
    C11      C        0.03810    0.44770    0.96910    1.000
    H21      H        0.06500    0.41260    0.95120    1.000
    H22      H        0.21360    0.36190    0.71300    1.000
    O12      O        0.34560    0.82670    0.84350    1.000
    C12      C        0.40960    0.96190    0.96910    1.000
    H23      H        0.34760    0.93500    0.95120    1.000
    H24      H        0.14830    0.78640    0.71300    1.000
    O13      O        0.65440    0.48110    0.34350    1.000
    C13      C        0.59040    0.55230    0.46910    1.000
    H25      H        0.65240    0.58740    0.45120    1.000
    H26      H        0.85170    0.63810    0.21300    1.000
    O14      O        0.51890    0.17330    0.34350    1.000
    C14      C        0.44770    0.03810    0.46910    1.000
    H27      H        0.41260    0.06500    0.45120    1.000
    H28      H        0.36190    0.21360    0.21300    1.000
    O15      O        0.82670    0.34560    0.34350    1.000
    C15      C        0.96190    0.40960    0.46910    1.000
    H29      H        0.93500    0.34760    0.45120    1.000
    H30      H        0.78640    0.14830    0.21300    1.000
    O16      O        0.34560    0.51890    0.84350    1.000
    C16      C        0.40960    0.44770    0.96910    1.000
    H31      H        0.34760    0.41260    0.95120    1.000
    H32      H        0.14830    0.36190    0.71300    1.000
    O17      O        0.48110    0.82670    0.84350    1.000
    C17      C        0.55230    0.96190    0.96910    1.000
    H33      H        0.58740    0.93500    0.95120    1.000
    H34      H        0.63810    0.78640    0.71300    1.000
    O18      O        0.17330    0.65440    0.84350    1.000
    C18      C        0.03810    0.59040    0.96910    1.000
    H35      H        0.06500    0.65240    0.95120    1.000
    H36      H        0.21360    0.85170    0.71300    1.000
    O19      O        0.48110    0.65440    0.65650    1.000
    C19      C        0.55230    0.59040    0.53090    1.000
    H37      H        0.58740    0.65240    0.54880    1.000
    H38      H        0.63810    0.85170    0.78700    1.000
    O20      O        0.17330    0.51890    0.65650    1.000
    C20      C        0.03810    0.44770    0.53090    1.000
    H39      H        0.06500    0.41260    0.54880    1.000
    H40      H        0.21360    0.36190    0.78700    1.000
    O21      O        0.34560    0.82670    0.65650    1.000
    C21      C        0.40960    0.96190    0.53090    1.000
    H41      H        0.34760    0.93500    0.54880    1.000
    H42      H        0.14830    0.78640    0.78700    1.000
    O22      O        0.51890    0.34560    0.15650    1.000
    C22      C        0.44770    0.40960    0.03090    1.000
    H43      H        0.41260    0.34760    0.04880    1.000
    H44      H        0.36190    0.14830    0.28700    1.000
    O23      O        0.82670    0.48110    0.15650    1.000
    C23      C        0.96190    0.55230    0.03090    1.000
    H45      H        0.93500    0.58740    0.04880    1.000
    H46      H        0.78640    0.63810    0.28700    1.000
    O24      O        0.65440    0.17330    0.15650    1.000
    C24      C        0.59040    0.03810    0.03090    1.000
    H47      H        0.65240    0.06500    0.04880    1.000
    H48      H        0.85170    0.21360    0.28700    1.000
    Fe1      Fe       0.26663    0.53327    0.75000    1.000
    N1       N        0.19220    0.38440    0.75000    1.000
    C25      C        0.09530    0.19060    0.75000    1.000
    C26      C        0.04245    0.08490    0.75000    1.000
    Fe2      Fe       0.46673    0.73337    0.75000    1.000
    N2       N        0.61560    0.80780    0.75000    1.000
    C27      C        0.80940    0.90470    0.75000    1.000
    C28      C        0.91510    0.95755    0.75000    1.000
    Fe3      Fe       0.26663    0.73337    0.75000    1.000
    N3       N        0.19220    0.80780    0.75000    1.000
    C29      C        0.09530    0.90470    0.75000    1.000
    C30      C        0.04245    0.95755    0.75000    1.000
    Fe4      Fe       0.73337    0.46673    0.25000    1.000
    N4       N        0.80780    0.61560    0.25000    1.000
    C31      C        0.90470    0.80940    0.25000    1.000
    C32      C        0.95755    0.91510    0.25000    1.000
    Fe5      Fe       0.53327    0.26663    0.25000    1.000
    N5       N        0.38440    0.19220    0.25000    1.000
    C33      C        0.19060    0.09530    0.25000    1.000
    C34      C        0.08490    0.04245    0.25000    1.000
    Fe6      Fe       0.73337    0.26663    0.25000    1.000
    N6       N        0.80780    0.19220    0.25000    1.000
    C35      C        0.90470    0.09530    0.25000    1.000
    C36      C        0.95755    0.04245    0.25000    1.000
    O25      O        0.33333    0.66667    0.75000    1.000
    O26      O        0.66667    0.33333    0.25000    1.000
    C37      C        0.42740    0.57260    0.63090    1.000
    C38      C        0.46510    0.53490    0.56260    1.000
    C39      C        0.42740    0.85480    0.63090    1.000
    C40      C        0.46510    0.93020    0.56260    1.000
    C41      C        0.14520    0.57260    0.63090    1.000
    C42      C        0.06980    0.53490    0.56260    1.000
    C43      C        0.57260    0.42740    0.13090    1.000
    C44      C        0.53490    0.46510    0.06260    1.000
    C45      C        0.57260    0.14520    0.13090    1.000
    C46      C        0.53490    0.06980    0.06260    1.000
    C47      C        0.85480    0.42740    0.13090    1.000
    C48      C        0.93020    0.46510    0.06260    1.000
    C49      C        0.57260    0.42740    0.36910    1.000
    C50      C        0.53490    0.46510    0.43740    1.000
    C51      C        0.85480    0.42740    0.36910    1.000
    C52      C        0.93020    0.46510    0.43740    1.000
    C53      C        0.57260    0.14520    0.36910    1.000
    C54      C        0.53490    0.06980    0.43740    1.000
    C55      C        0.42740    0.57260    0.86910    1.000
    C56      C        0.46510    0.53490    0.93740    1.000
    C57      C        0.14520    0.57260    0.86910    1.000
    C58      C        0.06980    0.53490    0.93740    1.000
    C59      C        0.42740    0.85480    0.86910    1.000
    C60      C        0.46510    0.93020    0.93740    1.000
    C61      C        0.23910    0.33600    0.75000    1.000
    H49      H        0.30420    0.36870    0.75000    1.000
    C62      C        0.19210    0.23970    0.75000    1.000
    H50      H        0.22530    0.20780    0.75000    1.000
    C63      C        0.66400    0.90310    0.75000    1.000
    H51      H        0.63130    0.93550    0.75000    1.000
    C64      C        0.76030    0.95240    0.75000    1.000
    H52      H        0.79220    0.01750    0.75000    1.000
    C65      C        0.09690    0.76090    0.75000    1.000
    H53      H        0.06450    0.69580    0.75000    1.000
    C66      C        0.04760    0.80790    0.75000    1.000
    H54      H        0.98250    0.77470    0.75000    1.000
    C67      C        0.76090    0.66400    0.25000    1.000
    H55      H        0.69580    0.63130    0.25000    1.000
    C68      C        0.80790    0.76030    0.25000    1.000
    H56      H        0.77470    0.79220    0.25000    1.000
    C69      C        0.33600    0.09690    0.25000    1.000
    H57      H        0.36870    0.06450    0.25000    1.000
    C70      C        0.23970    0.04760    0.25000    1.000
    H58      H        0.20780    0.98250    0.25000    1.000
    C71      C        0.90310    0.23910    0.25000    1.000
    H59      H        0.93550    0.30420    0.25000    1.000
    C72      C        0.95240    0.19210    0.25000    1.000
    H60      H        0.01750    0.22530    0.25000    1.000
    C73      C        0.33600    0.23910    0.25000    1.000
    H61      H        0.36870    0.30420    0.25000    1.000
    C74      C        0.23970    0.19210    0.25000    1.000
    H62      H        0.20780    0.22530    0.25000    1.000
    C75      C        0.90310    0.66400    0.25000    1.000
    H63      H        0.93550    0.63130    0.25000    1.000
    C76      C        0.95240    0.76030    0.25000    1.000
    H64      H        0.01750    0.79220    0.25000    1.000
    C77      C        0.76090    0.09690    0.25000    1.000
    H65      H        0.69580    0.06450    0.25000    1.000
    C78      C        0.80790    0.04760    0.25000    1.000
    H66      H        0.77470    0.98250    0.25000    1.000
    C79      C        0.66400    0.76090    0.75000    1.000
    H67      H        0.63130    0.69580    0.75000    1.000
    C80      C        0.76030    0.80790    0.75000    1.000
    H68      H        0.79220    0.77470    0.75000    1.000
    C81      C        0.09690    0.33600    0.75000    1.000
    H69      H        0.06450    0.36870    0.75000    1.000
    C82      C        0.04760    0.23970    0.75000    1.000
    H70      H        0.98250    0.20780    0.75000    1.000
    C83      C        0.23910    0.90310    0.75000    1.000
    H71      H        0.30420    0.93550    0.75000    1.000
    C84      C        0.19210    0.95240    0.75000    1.000
    H72      H        0.22530    0.01750    0.75000    1.000
    N7       N        0.00000    0.00000    0.75000    1.000
    N8       N        0.00000    0.00000    0.25000    1.000
    C85      C        0.16815    0.33630    0.67370    1.000
    H73      H        0.18460    0.36920    0.62150    1.000
    C86      C        0.11980    0.23960    0.67210    1.000
    H74      H        0.10385    0.20770    0.61930    1.000
    C87      C        0.66370    0.83185    0.67370    1.000
    H75      H        0.63080    0.81540    0.62150    1.000
    C88      C        0.76040    0.88020    0.67210    1.000
    H76      H        0.79230    0.89615    0.61930    1.000
    C89      C        0.16815    0.83185    0.67370    1.000
    H77      H        0.18460    0.81540    0.62150    1.000
    C90      C        0.11980    0.88020    0.67210    1.000
    H78      H        0.10385    0.89615    0.61930    1.000
    C91      C        0.83185    0.66370    0.17370    1.000
    H79      H        0.81540    0.63080    0.12150    1.000
    C92      C        0.88020    0.76040    0.17210    1.000
    H80      H        0.89615    0.79230    0.11930    1.000
    C93      C        0.33630    0.16815    0.17370    1.000
    H81      H        0.36920    0.18460    0.12150    1.000
    C94      C        0.23960    0.11980    0.17210    1.000
    H82      H        0.20770    0.10385    0.11930    1.000
    C95      C        0.83185    0.16815    0.17370    1.000
    H83      H        0.81540    0.18460    0.12150    1.000
    C96      C        0.88020    0.11980    0.17210    1.000
    H84      H        0.89615    0.10385    0.11930    1.000
    C97      C        0.33630    0.16815    0.32630    1.000
    H85      H        0.36920    0.18460    0.37850    1.000
    C98      C        0.23960    0.11980    0.32790    1.000
    H86      H        0.20770    0.10385    0.38070    1.000
    C99      C        0.83185    0.66370    0.32630    1.000
    H87      H        0.81540    0.63080    0.37850    1.000
    C100     C        0.88020    0.76040    0.32790    1.000
    H88      H        0.89615    0.79230    0.38070    1.000
    C101     C        0.83185    0.16815    0.32630    1.000
    H89      H        0.81540    0.18460    0.37850    1.000
    C102     C        0.88020    0.11980    0.32790    1.000
    H90      H        0.89615    0.10385    0.38070    1.000
    C103     C        0.66370    0.83185    0.82630    1.000
    H91      H        0.63080    0.81540    0.87850    1.000
    C104     C        0.76040    0.88020    0.82790    1.000
    H92      H        0.79230    0.89615    0.88070    1.000
    C105     C        0.16815    0.33630    0.82630    1.000
    H93      H        0.18460    0.36920    0.87850    1.000
    C106     C        0.11980    0.23960    0.82790    1.000
    H94      H        0.10385    0.20770    0.88070    1.000
    C107     C        0.16815    0.83185    0.82630    1.000
    H95      H        0.18460    0.81540    0.87850    1.000
    C108     C        0.11980    0.88020    0.82790    1.000
    H96      H        0.10385    0.89615    0.88070    1.000
