# CIF file generated by openbabel 3.1.0, see https://openbabel.org
data_I
_chemical_name_common 'image0'
_cell_length_a 8.441
_cell_length_b 8.441
_cell_length_c 17.5
_cell_angle_alpha 90
_cell_angle_beta 90
_cell_angle_gamma 90
_space_group_name_H-M_alt 'P 1'
_space_group_name_Hall 'P 1'
loop_
    _symmetry_equiv_pos_as_xyz
    x,y,z
loop_
    _atom_site_label
    _atom_site_type_symbol
    _atom_site_fract_x
    _atom_site_fract_y
    _atom_site_fract_z
    _atom_site_occupancy
    O1       O        0.13860    0.14790    0.01736    1.000
    O2       O        0.12650    0.97030    0.92263    1.000
    C1       C        0.07720    0.03410    0.98288    1.000
    O3       O        0.63860    0.64790    0.51736    1.000
    O4       O        0.62650    0.47030    0.42263    1.000
    C2       C        0.57720    0.53410    0.48288    1.000
    O5       O        0.36140    0.85210    0.51736    1.000
    O6       O        0.37350    0.02970    0.42263    1.000
    C3       C        0.42280    0.96590    0.48288    1.000
    O7       O        0.86140    0.35210    0.01736    1.000
    O8       O        0.87350    0.52970    0.92263    1.000
    C4       C        0.92280    0.46590    0.98288    1.000
    O9       O        0.60210    0.38860    0.26736    1.000
    O10      O        0.77970    0.37650    0.17263    1.000
    C5       C        0.71590    0.32720    0.23288    1.000
    O11      O        0.10210    0.88860    0.76736    1.000
    O12      O        0.27970    0.87650    0.67263    1.000
    C6       C        0.21590    0.82720    0.73288    1.000
    O13      O        0.89790    0.61140    0.76736    1.000
    O14      O        0.72030    0.62350    0.67263    1.000
    C7       C        0.78410    0.67280    0.73288    1.000
    O15      O        0.39790    0.11140    0.26736    1.000
    O16      O        0.22030    0.12350    0.17263    1.000
    C8       C        0.28410    0.17280    0.23288    1.000
    O17      O        0.86140    0.85210    0.98264    1.000
    O18      O        0.87350    0.02970    0.07737    1.000
    C9       C        0.92280    0.96590    0.01712    1.000
    O19      O        0.36140    0.35210    0.48264    1.000
    O20      O        0.37350    0.52970    0.57737    1.000
    C10      C        0.42280    0.46590    0.51712    1.000
    O21      O        0.63860    0.14790    0.48264    1.000
    O22      O        0.62650    0.97030    0.57737    1.000
    C11      C        0.57720    0.03410    0.51712    1.000
    O23      O        0.13860    0.64790    0.98264    1.000
    O24      O        0.12650    0.47030    0.07737    1.000
    C12      C        0.07720    0.53410    0.01712    1.000
    O25      O        0.39790    0.61140    0.73264    1.000
    O26      O        0.22030    0.62350    0.82737    1.000
    C13      C        0.28410    0.67280    0.76712    1.000
    O27      O        0.89790    0.11140    0.23264    1.000
    O28      O        0.72030    0.12350    0.32737    1.000
    C14      C        0.78410    0.17280    0.26712    1.000
    O29      O        0.10210    0.38860    0.23264    1.000
    O30      O        0.27970    0.37650    0.32737    1.000
    C15      C        0.21590    0.32720    0.26712    1.000
    O31      O        0.60210    0.88860    0.73264    1.000
    O32      O        0.77970    0.87650    0.82737    1.000
    C16      C        0.71590    0.82720    0.76712    1.000
    Yb1      Yb       0.00000    0.25000    0.12500    1.000
    Yb2      Yb       0.50000    0.75000    0.62500    1.000
    Yb3      Yb       0.50000    0.25000    0.37500    1.000
    Yb4      Yb       0.00000    0.75000    0.87500    1.000
