# CIF file generated by openbabel 3.1.0, see https://openbabel.org
data_I
_chemical_name_common 'image0'
_cell_length_a 8.849
_cell_length_b 13.869
_cell_length_c 10.818
_cell_angle_alpha 90
_cell_angle_beta 90
_cell_angle_gamma 90
_space_group_name_H-M_alt 'P 1'
_space_group_name_Hall 'P 1'
loop_
    _symmetry_equiv_pos_as_xyz
    x,y,z
loop_
    _atom_site_label
    _atom_site_type_symbol
    _atom_site_fract_x
    _atom_site_fract_y
    _atom_site_fract_z
    _atom_site_occupancy
    Zn1      Zn       0.03756    0.10116    0.32781    1.000
    P1       P        0.98948    0.07784    0.62516    1.000
    P2       P        0.82898    0.28392    0.38000    1.000
    O1       O        0.89870    0.20657    0.30080    1.000
    O2       O        0.72750    0.24083    0.48230    1.000
    O3       O        0.01030    0.04953    0.49304    1.000
    O4       O        0.10000    0.16304    0.65890    1.000
    O5       O        0.01600    0.99898    0.71650    1.000
    O6       O        0.95950    0.34147    0.44760    1.000
    O7       O        0.82500    0.11776    0.64690    1.000
    O8       O        0.74290    0.35660    0.30376    1.000
    Zn2      Zn       0.96244    0.89884    0.82781    1.000
    P3       P        0.01052    0.92216    0.12516    1.000
    P4       P        0.17102    0.71608    0.88000    1.000
    O9       O        0.10130    0.79343    0.80080    1.000
    O10      O        0.27250    0.75917    0.98230    1.000
    O11      O        0.98970    0.95047    0.99304    1.000
    O12      O        0.90000    0.83696    0.15890    1.000
    O13      O        0.98400    0.00102    0.21650    1.000
    O14      O        0.04050    0.65853    0.94760    1.000
    O15      O        0.17500    0.88224    0.14690    1.000
    O16      O        0.25710    0.64340    0.80376    1.000
    Zn3      Zn       0.53756    0.39884    0.32781    1.000
    P5       P        0.48948    0.42216    0.62516    1.000
    P6       P        0.32898    0.21608    0.38000    1.000
    O17      O        0.39870    0.29343    0.30080    1.000
    O18      O        0.22750    0.25917    0.48230    1.000
    O19      O        0.51030    0.45047    0.49304    1.000
    O20      O        0.60000    0.33696    0.65890    1.000
    O21      O        0.51600    0.50102    0.71650    1.000
    O22      O        0.45950    0.15853    0.44760    1.000
    O23      O        0.32500    0.38224    0.64690    1.000
    O24      O        0.24290    0.14340    0.30376    1.000
    Zn4      Zn       0.46244    0.60116    0.82781    1.000
    P7       P        0.51052    0.57784    0.12516    1.000
    P8       P        0.67102    0.78392    0.88000    1.000
    O25      O        0.60130    0.70657    0.80080    1.000
    O26      O        0.77250    0.74083    0.98230    1.000
    O27      O        0.48970    0.54953    0.99304    1.000
    O28      O        0.40000    0.66304    0.15890    1.000
    O29      O        0.48400    0.49898    0.21650    1.000
    O30      O        0.54050    0.84147    0.94760    1.000
    O31      O        0.67500    0.61776    0.14690    1.000
    O32      O        0.75710    0.85660    0.80376    1.000
