# CIF file generated by openbabel 3.1.0, see https://openbabel.org
data_I
_chemical_name_common 'image0'
_cell_length_a 8.887
_cell_length_b 32.456
_cell_length_c 10.6584
_cell_angle_alpha 90
_cell_angle_beta 112.051
_cell_angle_gamma 90
_space_group_name_H-M_alt 'P 1'
_space_group_name_Hall 'P 1'
loop_
    _symmetry_equiv_pos_as_xyz
    x,y,z
loop_
    _atom_site_label
    _atom_site_type_symbol
    _atom_site_fract_x
    _atom_site_fract_y
    _atom_site_fract_z
    _atom_site_occupancy
    Sc1      Sc       0.26990    0.61437    0.25540    1.000
    Sc2      Sc       0.77190    0.63740    0.25560    1.000
    O1       O        0.36000    0.64330    0.12800    1.000
    O2       O        0.39900    0.56410    0.23900    1.000
    O3       O        0.45700    0.63920    0.42300    1.000
    O4       O        0.63500    0.58440    0.23800    1.000
    O5       O        0.91800    0.81110    0.78800    1.000
    O6       O        0.18200    0.58440    0.38100    1.000
    O7       O        0.57600    0.66760    0.10400    1.000
    C1       C        0.44000    0.66880    0.08100    1.000
    C2       C        0.51100    0.55970    0.20200    1.000
    O8       O        0.95900    0.60780    0.40400    1.000
    O9       O        0.84300    0.61320    0.11400    1.000
    O10      O        0.13300    0.83480    0.75600    1.000
    O11      O        0.69000    0.65740    0.40000    1.000
    C3       C        0.61100    0.64500    0.46900    1.000
    O12      O        0.07300    0.59700    0.07900    1.000
    C4       C        0.93600    0.61960    0.80700    1.000
    H1       H        0.04690    0.61390    0.84250    1.000
    C5       C        0.86000    0.62950    0.67000    1.000
    H2       H        0.91970    0.63040    0.61500    1.000
    C6       C        0.69500    0.63790    0.61670    1.000
    C7       C        0.60500    0.63650    0.69900    1.000
    H3       H        0.49470    0.64220    0.66360    1.000
    C8       C        0.68200    0.62670    0.83600    1.000
    H4       H        0.62190    0.62570    0.89100    1.000
    C9       C        0.84700    0.61820    0.88930    1.000
    C10      C        0.92700    0.60940    0.03700    1.000
    C11      C        0.15500    0.76950    0.85100    1.000
    C12      C        0.07520    0.73890    0.89300    1.000
    H5       H        0.96410    0.74090    0.87290    1.000
    C13      C        0.16100    0.70530    0.96600    1.000
    H6       H        0.10790    0.68490    0.99460    1.000
    C14      C        0.32700    0.70230    0.99700    1.000
    C15      C        0.40740    0.73290    0.95500    1.000
    H7       H        0.51850    0.73080    0.97530    1.000
    C16      C        0.32100    0.76640    0.88200    1.000
    H8       H        0.37470    0.78690    0.85360    1.000
    C17      C        0.05100    0.80630    0.79000    1.000
    C18      C        0.50500    0.52890    0.09600    1.000
    C19      C        0.03000    0.53860    0.45700    1.000
    C20      C        0.14400    0.50680    0.47700    1.000
    H9       H        0.24090    0.51200    0.46550    1.000
    C21      C        0.07000    0.58050    0.41700    1.000
    C22      C        0.11400    0.46750    0.51600    1.000
    H10      H        0.18530    0.44590    0.52290    1.000
    C23      C        0.62800    0.52630    0.04600    1.000
    H11      H        0.71740    0.54350    0.08390    1.000
    C24      C        0.62600    0.49980    0.94200    1.000
    H12      H        0.70310    0.50060    0.90230    1.000
    Sc3      Sc       0.73010    0.11437    0.24460    1.000
    Sc4      Sc       0.22810    0.13740    0.24440    1.000
    O13      O        0.64000    0.14330    0.37200    1.000
    O14      O        0.60100    0.06410    0.26100    1.000
    O15      O        0.54300    0.13920    0.07700    1.000
    O16      O        0.36500    0.08440    0.26200    1.000
    O17      O        0.08200    0.31110    0.71200    1.000
    O18      O        0.81800    0.08440    0.11900    1.000
    O19      O        0.42400    0.16760    0.39600    1.000
    C25      C        0.56000    0.16880    0.41900    1.000
    C26      C        0.48900    0.05970    0.29800    1.000
    O20      O        0.04100    0.10780    0.09600    1.000
    O21      O        0.15700    0.11320    0.38600    1.000
    O22      O        0.86700    0.33480    0.74400    1.000
    O23      O        0.31000    0.15740    0.10000    1.000
    C27      C        0.38900    0.14500    0.03100    1.000
    O24      O        0.92700    0.09700    0.42100    1.000
    C28      C        0.06400    0.11960    0.69300    1.000
    H13      H        0.95310    0.11390    0.65750    1.000
    C29      C        0.14000    0.12950    0.83000    1.000
    H14      H        0.08030    0.13040    0.88500    1.000
    C30      C        0.30500    0.13790    0.88330    1.000
    C31      C        0.39500    0.13650    0.80100    1.000
    H15      H        0.50530    0.14220    0.83640    1.000
    C32      C        0.31800    0.12670    0.66400    1.000
    H16      H        0.37810    0.12570    0.60900    1.000
    C33      C        0.15300    0.11820    0.61070    1.000
    C34      C        0.07300    0.10940    0.46300    1.000
    C35      C        0.84500    0.26950    0.64900    1.000
    C36      C        0.92480    0.23890    0.60700    1.000
    H17      H        0.03590    0.24090    0.62710    1.000
    C37      C        0.83900    0.20530    0.53400    1.000
    H18      H        0.89210    0.18490    0.50540    1.000
    C38      C        0.67300    0.20230    0.50300    1.000
    C39      C        0.59260    0.23290    0.54500    1.000
    H19      H        0.48150    0.23080    0.52470    1.000
    C40      C        0.67900    0.26640    0.61800    1.000
    H20      H        0.62530    0.28690    0.64640    1.000
    C41      C        0.94900    0.30630    0.71000    1.000
    C42      C        0.49500    0.02890    0.40400    1.000
    C43      C        0.97000    0.03860    0.04300    1.000
    C44      C        0.85600    0.00680    0.02300    1.000
    H21      H        0.75910    0.01200    0.03450    1.000
    C45      C        0.93000    0.08050    0.08300    1.000
    C46      C        0.88600    0.96750    0.98400    1.000
    H22      H        0.81470    0.94590    0.97710    1.000
    C47      C        0.37200    0.02630    0.45400    1.000
    H23      H        0.28260    0.04350    0.41610    1.000
    C48      C        0.37400    0.99980    0.55800    1.000
    H24      H        0.29690    0.00060    0.59770    1.000
    Sc5      Sc       0.73010    0.38563    0.74460    1.000
    Sc6      Sc       0.22810    0.36260    0.74440    1.000
    O25      O        0.64000    0.35670    0.87200    1.000
    O26      O        0.60100    0.43590    0.76100    1.000
    O27      O        0.54300    0.36080    0.57700    1.000
    O28      O        0.36500    0.41560    0.76200    1.000
    O29      O        0.08200    0.18890    0.21200    1.000
    O30      O        0.81800    0.41560    0.61900    1.000
    O31      O        0.42400    0.33240    0.89600    1.000
    C49      C        0.56000    0.33120    0.91900    1.000
    C50      C        0.48900    0.44030    0.79800    1.000
    O32      O        0.04100    0.39220    0.59600    1.000
    O33      O        0.15700    0.38680    0.88600    1.000
    O34      O        0.86700    0.16520    0.24400    1.000
    O35      O        0.31000    0.34260    0.60000    1.000
    C51      C        0.38900    0.35500    0.53100    1.000
    O36      O        0.92700    0.40300    0.92100    1.000
    C52      C        0.06400    0.38040    0.19300    1.000
    H25      H        0.95310    0.38610    0.15750    1.000
    C53      C        0.14000    0.37050    0.33000    1.000
    H26      H        0.08030    0.36960    0.38500    1.000
    C54      C        0.30500    0.36210    0.38330    1.000
    C55      C        0.39500    0.36350    0.30100    1.000
    H27      H        0.50530    0.35780    0.33640    1.000
    C56      C        0.31800    0.37330    0.16400    1.000
    H28      H        0.37810    0.37430    0.10900    1.000
    C57      C        0.15300    0.38180    0.11070    1.000
    C58      C        0.07300    0.39060    0.96300    1.000
    C59      C        0.84500    0.23050    0.14900    1.000
    C60      C        0.92480    0.26110    0.10700    1.000
    H29      H        0.03590    0.25910    0.12710    1.000
    C61      C        0.83900    0.29470    0.03400    1.000
    H30      H        0.89210    0.31510    0.00540    1.000
    C62      C        0.67300    0.29770    0.00300    1.000
    C63      C        0.59260    0.26710    0.04500    1.000
    H31      H        0.48150    0.26920    0.02470    1.000
    C64      C        0.67900    0.23360    0.11800    1.000
    H32      H        0.62530    0.21310    0.14640    1.000
    C65      C        0.94900    0.19370    0.21000    1.000
    C66      C        0.49500    0.47110    0.90400    1.000
    C67      C        0.97000    0.46140    0.54300    1.000
    C68      C        0.85600    0.49320    0.52300    1.000
    H33      H        0.75910    0.48800    0.53450    1.000
    C69      C        0.93000    0.41950    0.58300    1.000
    C70      C        0.88600    0.53250    0.48400    1.000
    H34      H        0.81470    0.55410    0.47710    1.000
    C71      C        0.37200    0.47370    0.95400    1.000
    H35      H        0.28260    0.45650    0.91610    1.000
    C72      C        0.37400    0.50020    0.05800    1.000
    H36      H        0.29690    0.49940    0.09770    1.000
    Sc7      Sc       0.26990    0.88563    0.75540    1.000
    Sc8      Sc       0.77190    0.86260    0.75560    1.000
    O37      O        0.36000    0.85670    0.62800    1.000
    O38      O        0.39900    0.93590    0.73900    1.000
    O39      O        0.45700    0.86080    0.92300    1.000
    O40      O        0.63500    0.91560    0.73800    1.000
    O41      O        0.91800    0.68890    0.28800    1.000
    O42      O        0.18200    0.91560    0.88100    1.000
    O43      O        0.57600    0.83240    0.60400    1.000
    C73      C        0.44000    0.83120    0.58100    1.000
    C74      C        0.51100    0.94030    0.70200    1.000
    O44      O        0.95900    0.89220    0.90400    1.000
    O45      O        0.84300    0.88680    0.61400    1.000
    O46      O        0.13300    0.66520    0.25600    1.000
    O47      O        0.69000    0.84260    0.90000    1.000
    C75      C        0.61100    0.85500    0.96900    1.000
    O48      O        0.07300    0.90300    0.57900    1.000
    C76      C        0.93600    0.88040    0.30700    1.000
    H37      H        0.04690    0.88610    0.34250    1.000
    C77      C        0.86000    0.87050    0.17000    1.000
    H38      H        0.91970    0.86960    0.11500    1.000
    C78      C        0.69500    0.86210    0.11670    1.000
    C79      C        0.60500    0.86350    0.19900    1.000
    H39      H        0.49470    0.85780    0.16360    1.000
    C80      C        0.68200    0.87330    0.33600    1.000
    H40      H        0.62190    0.87430    0.39100    1.000
    C81      C        0.84700    0.88180    0.38930    1.000
    C82      C        0.92700    0.89060    0.53700    1.000
    C83      C        0.15500    0.73050    0.35100    1.000
    C84      C        0.07520    0.76110    0.39300    1.000
    H41      H        0.96410    0.75910    0.37290    1.000
    C85      C        0.16100    0.79470    0.46600    1.000
    H42      H        0.10790    0.81510    0.49460    1.000
    C86      C        0.32700    0.79770    0.49700    1.000
    C87      C        0.40740    0.76710    0.45500    1.000
    H43      H        0.51850    0.76920    0.47530    1.000
    C88      C        0.32100    0.73360    0.38200    1.000
    H44      H        0.37470    0.71310    0.35360    1.000
    C89      C        0.05100    0.69370    0.29000    1.000
    C90      C        0.50500    0.97110    0.59600    1.000
    C91      C        0.03000    0.96140    0.95700    1.000
    C92      C        0.14400    0.99320    0.97700    1.000
    H45      H        0.24090    0.98800    0.96550    1.000
    C93      C        0.07000    0.91950    0.91700    1.000
    C94      C        0.11400    0.03250    0.01600    1.000
    H46      H        0.18530    0.05410    0.02290    1.000
    C95      C        0.62800    0.97370    0.54600    1.000
    H47      H        0.71740    0.95650    0.58390    1.000
    C96      C        0.62600    0.00020    0.44200    1.000
    H48      H        0.70310    0.99940    0.40230    1.000
