# CIF file generated by openbabel 3.1.0, see https://openbabel.org
data_I
_chemical_name_common 'image0'
_cell_length_a 9.1405
_cell_length_b 9.1984
_cell_length_c 9.612
_cell_angle_alpha 90
_cell_angle_beta 115.995
_cell_angle_gamma 90
_space_group_name_H-M_alt 'P 1'
_space_group_name_Hall 'P 1'
loop_
    _symmetry_equiv_pos_as_xyz
    x,y,z
loop_
    _atom_site_label
    _atom_site_type_symbol
    _atom_site_fract_x
    _atom_site_fract_y
    _atom_site_fract_z
    _atom_site_occupancy
    P1       P        0.84609    0.83097    0.02462    1.000
    H1       H        0.90500    0.72800    0.94900    1.000
    P2       P        0.67689    0.40090    0.92343    1.000
    H2       H        0.75700    0.50900    0.88400    1.000
    O1       O        0.73300    0.75860    0.08240    1.000
    O2       O        0.50280    0.41220    0.80490    1.000
    O3       O        0.70330    0.42650    0.08830    1.000
    O4       O        0.99150    0.90710    0.14730    1.000
    O5       O        0.73980    0.93270    0.89530    1.000
    O6       O        0.75880    0.25810    0.91780    1.000
    P3       P        0.65391    0.83097    0.47538    1.000
    H3       H        0.59500    0.72800    0.55100    1.000
    P4       P        0.82311    0.40090    0.57657    1.000
    H4       H        0.74300    0.50900    0.61600    1.000
    O7       O        0.76700    0.75860    0.41760    1.000
    O8       O        0.99720    0.41220    0.69510    1.000
    O9       O        0.79670    0.42650    0.41170    1.000
    O10      O        0.50850    0.90710    0.35270    1.000
    O11      O        0.76020    0.93270    0.60470    1.000
    O12      O        0.74120    0.25810    0.58220    1.000
    P5       P        0.15391    0.16903    0.97538    1.000
    H5       H        0.09500    0.27200    0.05100    1.000
    P6       P        0.32311    0.59910    0.07657    1.000
    H6       H        0.24300    0.49100    0.11600    1.000
    O13      O        0.26700    0.24140    0.91760    1.000
    O14      O        0.49720    0.58780    0.19510    1.000
    O15      O        0.29670    0.57350    0.91170    1.000
    O16      O        0.00850    0.09290    0.85270    1.000
    O17      O        0.26020    0.06730    0.10470    1.000
    O18      O        0.24120    0.74190    0.08220    1.000
    P7       P        0.34609    0.16903    0.52462    1.000
    H7       H        0.40500    0.27200    0.44900    1.000
    P8       P        0.17689    0.59910    0.42343    1.000
    H8       H        0.25700    0.49100    0.38400    1.000
    O19      O        0.23300    0.24140    0.58240    1.000
    O20      O        0.00280    0.58780    0.30490    1.000
    O21      O        0.20330    0.57350    0.58830    1.000
    O22      O        0.49150    0.09290    0.64730    1.000
    O23      O        0.23980    0.06730    0.39530    1.000
    O24      O        0.25880    0.74190    0.41780    1.000
    In1      In       0.25000    0.89664    0.25000    1.000
    In2      In       0.75000    0.10336    0.75000    1.000
    In3      In       0.75000    0.60203    0.25000    1.000
    In4      In       0.25000    0.39797    0.75000    1.000
