# CIF file generated by openbabel 3.1.0, see https://openbabel.org
data_I
_chemical_name_common 'image0'
_cell_length_a 12.602
_cell_length_b 15.129
_cell_length_c 18.549
_cell_angle_alpha 90
_cell_angle_beta 96.599
_cell_angle_gamma 90
_space_group_name_H-M_alt 'P 1'
_space_group_name_Hall 'P 1'
loop_
    _symmetry_equiv_pos_as_xyz
    x,y,z
loop_
    _atom_site_label
    _atom_site_type_symbol
    _atom_site_fract_x
    _atom_site_fract_y
    _atom_site_fract_z
    _atom_site_occupancy
    N1       N        0.43016    0.59657    0.83126    1.000
    C1       C        0.39770    0.68017    0.82670    1.000
    H1       H        0.40850    0.71260    0.78560    1.000
    C2       C        0.34830    0.72074    0.88085    1.000
    H2       H        0.32750    0.77960    0.87580    1.000
    C3       C        0.32984    0.67430    0.94232    1.000
    C4       C        0.36530    0.58783    0.94679    1.000
    H3       H        0.35620    0.55410    0.98750    1.000
    C5       C        0.41380    0.55186    0.89130    1.000
    H4       H        0.43650    0.49340    0.89550    1.000
    C6       C        0.27260    0.71105    0.00040    1.000
    H5       H        0.26820    0.67590    0.04110    1.000
    N2       N        0.56984    0.59657    0.66874    1.000
    C7       C        0.60230    0.68017    0.67330    1.000
    H6       H        0.59150    0.71260    0.71440    1.000
    C8       C        0.65170    0.72074    0.61915    1.000
    H7       H        0.67250    0.77960    0.62420    1.000
    C9       C        0.67016    0.67430    0.55768    1.000
    C10      C        0.63470    0.58783    0.55321    1.000
    H8       H        0.64380    0.55410    0.51250    1.000
    C11      C        0.58620    0.55186    0.60870    1.000
    H9       H        0.56350    0.49340    0.60450    1.000
    C12      C        0.72740    0.71105    0.49960    1.000
    H10      H        0.73180    0.67590    0.45890    1.000
    N3       N        0.06984    0.90343    0.16874    1.000
    C13      C        0.10230    0.81983    0.17330    1.000
    H11      H        0.09150    0.78740    0.21440    1.000
    C14      C        0.15170    0.77926    0.11915    1.000
    H12      H        0.17250    0.72040    0.12420    1.000
    C15      C        0.17016    0.82570    0.05768    1.000
    C16      C        0.13470    0.91217    0.05321    1.000
    H13      H        0.14380    0.94590    0.01250    1.000
    C17      C        0.08620    0.94814    0.10870    1.000
    H14      H        0.06350    0.00660    0.10450    1.000
    C18      C        0.22740    0.78895    0.99960    1.000
    H15      H        0.23180    0.82410    0.95890    1.000
    N4       N        0.93016    0.90343    0.33126    1.000
    C19      C        0.89770    0.81983    0.32670    1.000
    H16      H        0.90850    0.78740    0.28560    1.000
    C20      C        0.84830    0.77926    0.38085    1.000
    H17      H        0.82750    0.72040    0.37580    1.000
    C21      C        0.82984    0.82570    0.44232    1.000
    C22      C        0.86530    0.91217    0.44679    1.000
    H18      H        0.85620    0.94590    0.48750    1.000
    C23      C        0.91380    0.94814    0.39130    1.000
    H19      H        0.93650    0.00660    0.39550    1.000
    C24      C        0.77260    0.78895    0.50040    1.000
    H20      H        0.76820    0.82410    0.54110    1.000
    Zn1      Zn       0.50000    0.53745    0.75000    1.000
    Zn2      Zn       0.00000    0.96255    0.25000    1.000
    N5       N        0.93016    0.09657    0.83126    1.000
    C25      C        0.89770    0.18017    0.82670    1.000
    H21      H        0.90850    0.21260    0.78560    1.000
    C26      C        0.84830    0.22074    0.88085    1.000
    H22      H        0.82750    0.27960    0.87580    1.000
    C27      C        0.82984    0.17430    0.94232    1.000
    C28      C        0.86530    0.08783    0.94679    1.000
    H23      H        0.85620    0.05410    0.98750    1.000
    C29      C        0.91380    0.05186    0.89130    1.000
    H24      H        0.93650    0.99340    0.89550    1.000
    C30      C        0.77260    0.21105    0.00040    1.000
    H25      H        0.76820    0.17590    0.04110    1.000
    N6       N        0.06984    0.09657    0.66874    1.000
    C31      C        0.10230    0.18017    0.67330    1.000
    H26      H        0.09150    0.21260    0.71440    1.000
    C32      C        0.15170    0.22074    0.61915    1.000
    H27      H        0.17250    0.27960    0.62420    1.000
    C33      C        0.17016    0.17430    0.55768    1.000
    C34      C        0.13470    0.08783    0.55321    1.000
    H28      H        0.14380    0.05410    0.51250    1.000
    C35      C        0.08620    0.05186    0.60870    1.000
    H29      H        0.06350    0.99340    0.60450    1.000
    C36      C        0.22740    0.21105    0.49960    1.000
    H30      H        0.23180    0.17590    0.45890    1.000
    N7       N        0.56984    0.40343    0.16874    1.000
    C37      C        0.60230    0.31983    0.17330    1.000
    H31      H        0.59150    0.28740    0.21440    1.000
    C38      C        0.65170    0.27926    0.11915    1.000
    H32      H        0.67250    0.22040    0.12420    1.000
    C39      C        0.67016    0.32570    0.05768    1.000
    C40      C        0.63470    0.41217    0.05321    1.000
    H33      H        0.64380    0.44590    0.01250    1.000
    C41      C        0.58620    0.44814    0.10870    1.000
    H34      H        0.56350    0.50660    0.10450    1.000
    C42      C        0.72740    0.28895    0.99960    1.000
    H35      H        0.73180    0.32410    0.95890    1.000
    N8       N        0.43016    0.40343    0.33126    1.000
    C43      C        0.39770    0.31983    0.32670    1.000
    H36      H        0.40850    0.28740    0.28560    1.000
    C44      C        0.34830    0.27926    0.38085    1.000
    H37      H        0.32750    0.22040    0.37580    1.000
    C45      C        0.32984    0.32570    0.44232    1.000
    C46      C        0.36530    0.41217    0.44679    1.000
    H38      H        0.35620    0.44590    0.48750    1.000
    C47      C        0.41380    0.44814    0.39130    1.000
    H39      H        0.43650    0.50660    0.39550    1.000
    C48      C        0.27260    0.28895    0.50040    1.000
    H40      H        0.26820    0.32410    0.54110    1.000
    Zn3      Zn       0.00000    0.03745    0.75000    1.000
    Zn4      Zn       0.50000    0.46255    0.25000    1.000
    N9       N        0.34172    0.53391    0.68019    1.000
    C49      C        0.31780    0.57109    0.61480    1.000
    H41      H        0.36610    0.61110    0.59900    1.000
    C50      C        0.22520    0.55323    0.56942    1.000
    H42      H        0.21340    0.58000    0.52410    1.000
    C51      C        0.15031    0.49571    0.59160    1.000
    C52      C        0.17090    0.46210    0.66175    1.000
    H43      H        0.12070    0.42670    0.68080    1.000
    C53      C        0.26640    0.48170    0.70262    1.000
    H44      H        0.27920    0.45710    0.74870    1.000
    C54      C        0.05001    0.46772    0.54572    1.000
    H45      H        0.02830    0.40920    0.56130    1.000
    C55      C        0.95057    0.53158    0.53836    1.000
    H46      H        0.88760    0.49990    0.55130    1.000
    C56      C        0.96111    0.61899    0.57779    1.000
    C57      C        0.01790    0.68974    0.55497    1.000
    H47      H        0.05430    0.68470    0.51430    1.000
    C58      C        0.02010    0.76859    0.59373    1.000
    H48      H        0.05980    0.81530    0.57830    1.000
    N10      N        0.96910    0.78084    0.65106    1.000
    C59      C        0.91700    0.71160    0.67429    1.000
    H49      H        0.88210    0.71850    0.71550    1.000
    C60      C        0.91190    0.62955    0.64017    1.000
    H50      H        0.87620    0.58260    0.65900    1.000
    N11      N        0.65828    0.46609    0.31981    1.000
    C61      C        0.68220    0.42891    0.38520    1.000
    H51      H        0.63390    0.38890    0.40100    1.000
    C62      C        0.77480    0.44677    0.43058    1.000
    H52      H        0.78660    0.42000    0.47590    1.000
    C63      C        0.84969    0.50429    0.40840    1.000
    C64      C        0.82910    0.53790    0.33825    1.000
    H53      H        0.87930    0.57330    0.31920    1.000
    C65      C        0.73360    0.51830    0.29738    1.000
    H54      H        0.72080    0.54290    0.25130    1.000
    C66      C        0.94999    0.53228    0.45428    1.000
    H55      H        0.97170    0.59080    0.43870    1.000
    C67      C        0.04943    0.46842    0.46164    1.000
    H56      H        0.11240    0.50010    0.44870    1.000
    C68      C        0.03889    0.38101    0.42221    1.000
    C69      C        0.98210    0.31026    0.44503    1.000
    H57      H        0.94570    0.31530    0.48570    1.000
    C70      C        0.97990    0.23141    0.40627    1.000
    H58      H        0.94020    0.18470    0.42170    1.000
    N12      N        0.03090    0.21916    0.34894    1.000
    C71      C        0.08300    0.28840    0.32571    1.000
    H59      H        0.11790    0.28150    0.28450    1.000
    C72      C        0.08810    0.37045    0.35983    1.000
    H60      H        0.12380    0.41740    0.34100    1.000
    N13      N        0.84172    0.03391    0.68019    1.000
    C73      C        0.81780    0.07109    0.61480    1.000
    H61      H        0.86610    0.11110    0.59900    1.000
    C74      C        0.72520    0.05323    0.56942    1.000
    H62      H        0.71340    0.08000    0.52410    1.000
    C75      C        0.65031    0.99571    0.59160    1.000
    C76      C        0.67090    0.96210    0.66175    1.000
    H63      H        0.62070    0.92670    0.68080    1.000
    C77      C        0.76640    0.98170    0.70262    1.000
    H64      H        0.77920    0.95710    0.74870    1.000
    C78      C        0.55001    0.96772    0.54572    1.000
    H65      H        0.52830    0.90920    0.56130    1.000
    C79      C        0.45057    0.03158    0.53836    1.000
    H66      H        0.38760    0.99990    0.55130    1.000
    C80      C        0.46111    0.11899    0.57779    1.000
    C81      C        0.51790    0.18974    0.55497    1.000
    H67      H        0.55430    0.18470    0.51430    1.000
    C82      C        0.52010    0.26859    0.59373    1.000
    H68      H        0.55980    0.31530    0.57830    1.000
    N14      N        0.46910    0.28084    0.65106    1.000
    C83      C        0.41700    0.21160    0.67429    1.000
    H69      H        0.38210    0.21850    0.71550    1.000
    C84      C        0.41190    0.12955    0.64017    1.000
    H70      H        0.37620    0.08260    0.65900    1.000
    N15      N        0.15828    0.96609    0.31981    1.000
    C85      C        0.18220    0.92891    0.38520    1.000
    H71      H        0.13390    0.88890    0.40100    1.000
    C86      C        0.27480    0.94677    0.43058    1.000
    H72      H        0.28660    0.92000    0.47590    1.000
    C87      C        0.34969    0.00429    0.40840    1.000
    C88      C        0.32910    0.03790    0.33825    1.000
    H73      H        0.37930    0.07330    0.31920    1.000
    C89      C        0.23360    0.01830    0.29738    1.000
    H74      H        0.22080    0.04290    0.25130    1.000
    C90      C        0.44999    0.03228    0.45428    1.000
    H75      H        0.47170    0.09080    0.43870    1.000
    C91      C        0.54943    0.96842    0.46164    1.000
    H76      H        0.61240    0.00010    0.44870    1.000
    C92      C        0.53889    0.88101    0.42221    1.000
    C93      C        0.48210    0.81026    0.44503    1.000
    H77      H        0.44570    0.81530    0.48570    1.000
    C94      C        0.47990    0.73141    0.40627    1.000
    H78      H        0.44020    0.68470    0.42170    1.000
    N16      N        0.53090    0.71916    0.34894    1.000
    C95      C        0.58300    0.78840    0.32571    1.000
    H79      H        0.61790    0.78150    0.28450    1.000
    C96      C        0.58810    0.87045    0.35983    1.000
    H80      H        0.62380    0.91740    0.34100    1.000
    N17      N        0.65828    0.53391    0.81981    1.000
    C97      C        0.68220    0.57109    0.88520    1.000
    H81      H        0.63390    0.61110    0.90100    1.000
    C98      C        0.77480    0.55323    0.93058    1.000
    H82      H        0.78660    0.58000    0.97590    1.000
    C99      C        0.84969    0.49571    0.90840    1.000
    C100     C        0.82910    0.46210    0.83825    1.000
    H83      H        0.87930    0.42670    0.81920    1.000
    C101     C        0.73360    0.48170    0.79738    1.000
    H84      H        0.72080    0.45710    0.75130    1.000
    C102     C        0.94999    0.46772    0.95428    1.000
    H85      H        0.97170    0.40920    0.93870    1.000
    C103     C        0.04943    0.53158    0.96164    1.000
    H86      H        0.11240    0.49990    0.94870    1.000
    C104     C        0.03889    0.61899    0.92221    1.000
    C105     C        0.98210    0.68974    0.94503    1.000
    H87      H        0.94570    0.68470    0.98570    1.000
    C106     C        0.97990    0.76859    0.90627    1.000
    H88      H        0.94020    0.81530    0.92170    1.000
    N18      N        0.03090    0.78084    0.84894    1.000
    C107     C        0.08300    0.71160    0.82571    1.000
    H89      H        0.11790    0.71850    0.78450    1.000
    C108     C        0.08810    0.62955    0.85983    1.000
    H90      H        0.12380    0.58260    0.84100    1.000
    N19      N        0.34172    0.46609    0.18019    1.000
    C109     C        0.31780    0.42891    0.11480    1.000
    H91      H        0.36610    0.38890    0.09900    1.000
    C110     C        0.22520    0.44677    0.06942    1.000
    H92      H        0.21340    0.42000    0.02410    1.000
    C111     C        0.15031    0.50429    0.09160    1.000
    C112     C        0.17090    0.53790    0.16175    1.000
    H93      H        0.12070    0.57330    0.18080    1.000
    C113     C        0.26640    0.51830    0.20262    1.000
    H94      H        0.27920    0.54290    0.24870    1.000
    C114     C        0.05001    0.53228    0.04572    1.000
    H95      H        0.02830    0.59080    0.06130    1.000
    C115     C        0.95057    0.46842    0.03836    1.000
    H96      H        0.88760    0.50010    0.05130    1.000
    C116     C        0.96111    0.38101    0.07779    1.000
    C117     C        0.01790    0.31026    0.05497    1.000
    H97      H        0.05430    0.31530    0.01430    1.000
    C118     C        0.02010    0.23141    0.09373    1.000
    H98      H        0.05980    0.18470    0.07830    1.000
    N20      N        0.96910    0.21916    0.15106    1.000
    C119     C        0.91700    0.28840    0.17429    1.000
    H99      H        0.88210    0.28150    0.21550    1.000
    C120     C        0.91190    0.37045    0.14017    1.000
    H100     H        0.87620    0.41740    0.15900    1.000
    N21      N        0.15828    0.03391    0.81981    1.000
    C121     C        0.18220    0.07109    0.88520    1.000
    H101     H        0.13390    0.11110    0.90100    1.000
    C122     C        0.27480    0.05323    0.93058    1.000
    H102     H        0.28660    0.08000    0.97590    1.000
    C123     C        0.34969    0.99571    0.90840    1.000
    C124     C        0.32910    0.96210    0.83825    1.000
    H103     H        0.37930    0.92670    0.81920    1.000
    C125     C        0.23360    0.98170    0.79738    1.000
    H104     H        0.22080    0.95710    0.75130    1.000
    C126     C        0.44999    0.96772    0.95428    1.000
    H105     H        0.47170    0.90920    0.93870    1.000
    C127     C        0.54943    0.03158    0.96164    1.000
    H106     H        0.61240    0.99990    0.94870    1.000
    C128     C        0.53889    0.11899    0.92221    1.000
    C129     C        0.48210    0.18974    0.94503    1.000
    H107     H        0.44570    0.18470    0.98570    1.000
    C130     C        0.47990    0.26859    0.90627    1.000
    H108     H        0.44020    0.31530    0.92170    1.000
    N22      N        0.53090    0.28084    0.84894    1.000
    C131     C        0.58300    0.21160    0.82571    1.000
    H109     H        0.61790    0.21850    0.78450    1.000
    C132     C        0.58810    0.12955    0.85983    1.000
    H110     H        0.62380    0.08260    0.84100    1.000
    N23      N        0.84172    0.96609    0.18019    1.000
    C133     C        0.81780    0.92891    0.11480    1.000
    H111     H        0.86610    0.88890    0.09900    1.000
    C134     C        0.72520    0.94677    0.06942    1.000
    H112     H        0.71340    0.92000    0.02410    1.000
    C135     C        0.65031    0.00429    0.09160    1.000
    C136     C        0.67090    0.03790    0.16175    1.000
    H113     H        0.62070    0.07330    0.18080    1.000
    C137     C        0.76640    0.01830    0.20262    1.000
    H114     H        0.77920    0.04290    0.24870    1.000
    C138     C        0.55001    0.03228    0.04572    1.000
    H115     H        0.52830    0.09080    0.06130    1.000
    C139     C        0.45057    0.96842    0.03836    1.000
    H116     H        0.38760    0.00010    0.05130    1.000
    C140     C        0.46111    0.88101    0.07779    1.000
    C141     C        0.51790    0.81026    0.05497    1.000
    H117     H        0.55430    0.81530    0.01430    1.000
    C142     C        0.52010    0.73141    0.09373    1.000
    H118     H        0.55980    0.68470    0.07830    1.000
    N24      N        0.46910    0.71916    0.15106    1.000
    C143     C        0.41700    0.78840    0.17429    1.000
    H119     H        0.38210    0.78150    0.21550    1.000
    C144     C        0.41190    0.87045    0.14017    1.000
    H120     H        0.37620    0.91740    0.15900    1.000
