# CIF file generated by openbabel 3.1.0, see https://openbabel.org
data_I
_chemical_name_common 'image0'
_cell_length_a 11.2896
_cell_length_b 12.1049
_cell_length_c 16.1579
_cell_angle_alpha 90
_cell_angle_beta 129.914
_cell_angle_gamma 90
_space_group_name_H-M_alt 'P 1'
_space_group_name_Hall 'P 1'
loop_
    _symmetry_equiv_pos_as_xyz
    x,y,z
loop_
    _atom_site_label
    _atom_site_type_symbol
    _atom_site_fract_x
    _atom_site_fract_y
    _atom_site_fract_z
    _atom_site_occupancy
    C1       C        0.14240    0.88760    0.76817    1.000
    C2       C        0.08410    0.79981    0.69741    1.000
    H1       H        0.98130    0.77890    0.65730    1.000
    C3       C        0.18060    0.74280    0.68670    1.000
    C4       C        0.11880    0.64697    0.61139    1.000
    C5       C        0.33320    0.77595    0.74595    1.000
    H2       H        0.39750    0.73820    0.73830    1.000
    C6       C        0.39060    0.86466    0.81628    1.000
    C7       C        0.29520    0.92008    0.82820    1.000
    H3       H        0.33340    0.97880    0.87620    1.000
    C8       C        0.55480    0.90091    0.87808    1.000
    O1       O        0.07275    0.92555    0.88927    1.000
    O2       O        0.86690    0.92950    0.69747    1.000
    O3       O        0.05550    0.07636    0.78550    1.000
    O4       O        0.21577    0.57855    0.62742    1.000
    O5       O        0.97600    0.64136    0.53737    1.000
    O6       O        0.63801    0.85421    0.86478    1.000
    O7       O        0.60550    0.98005    0.94240    1.000
    S1       S        0.02288    0.96245    0.78418    1.000
    Zn1      Zn       0.17868    0.02471    0.01903    1.000
    C9       C        0.85760    0.38760    0.73183    1.000
    C10      C        0.91590    0.29981    0.80259    1.000
    H4       H        0.01870    0.27890    0.84270    1.000
    C11      C        0.81940    0.24280    0.81330    1.000
    C12      C        0.88120    0.14697    0.88861    1.000
    C13      C        0.66680    0.27595    0.75405    1.000
    H5       H        0.60250    0.23820    0.76170    1.000
    C14      C        0.60940    0.36466    0.68372    1.000
    C15      C        0.70480    0.42008    0.67180    1.000
    H6       H        0.66660    0.47880    0.62380    1.000
    C16      C        0.44520    0.40091    0.62192    1.000
    O8       O        0.92725    0.42555    0.61073    1.000
    O9       O        0.13310    0.42950    0.80253    1.000
    O10      O        0.94450    0.57636    0.71450    1.000
    O11      O        0.78423    0.07855    0.87258    1.000
    O12      O        0.02400    0.14136    0.96263    1.000
    O13      O        0.36199    0.35421    0.63522    1.000
    O14      O        0.39450    0.48005    0.55760    1.000
    S2       S        0.97712    0.46245    0.71582    1.000
    Zn2      Zn       0.82132    0.52471    0.48097    1.000
    C17      C        0.85760    0.11240    0.23183    1.000
    C18      C        0.91590    0.20019    0.30259    1.000
    H7       H        0.01870    0.22110    0.34270    1.000
    C19      C        0.81940    0.25720    0.31330    1.000
    C20      C        0.88120    0.35303    0.38861    1.000
    C21      C        0.66680    0.22405    0.25405    1.000
    H8       H        0.60250    0.26180    0.26170    1.000
    C22      C        0.60940    0.13534    0.18372    1.000
    C23      C        0.70480    0.07992    0.17180    1.000
    H9       H        0.66660    0.02120    0.12380    1.000
    C24      C        0.44520    0.09909    0.12192    1.000
    O15      O        0.92725    0.07445    0.11073    1.000
    O16      O        0.13310    0.07050    0.30253    1.000
    O17      O        0.94450    0.92364    0.21450    1.000
    O18      O        0.78423    0.42145    0.37258    1.000
    O19      O        0.02400    0.35864    0.46263    1.000
    O20      O        0.36199    0.14579    0.13522    1.000
    O21      O        0.39450    0.01995    0.05760    1.000
    S3       S        0.97712    0.03755    0.21582    1.000
    Zn3      Zn       0.82132    0.97529    0.98097    1.000
    C25      C        0.14240    0.61240    0.26817    1.000
    C26      C        0.08410    0.70019    0.19741    1.000
    H10      H        0.98130    0.72110    0.15730    1.000
    C27      C        0.18060    0.75720    0.18670    1.000
    C28      C        0.11880    0.85303    0.11139    1.000
    C29      C        0.33320    0.72405    0.24595    1.000
    H11      H        0.39750    0.76180    0.23830    1.000
    C30      C        0.39060    0.63534    0.31628    1.000
    C31      C        0.29520    0.57992    0.32820    1.000
    H12      H        0.33340    0.52120    0.37620    1.000
    C32      C        0.55480    0.59909    0.37808    1.000
    O22      O        0.07275    0.57445    0.38927    1.000
    O23      O        0.86690    0.57050    0.19747    1.000
    O24      O        0.05550    0.42364    0.28550    1.000
    O25      O        0.21577    0.92145    0.12742    1.000
    O26      O        0.97600    0.85864    0.03737    1.000
    O27      O        0.63801    0.64579    0.36478    1.000
    O28      O        0.60550    0.51995    0.44240    1.000
    S4       S        0.02288    0.53755    0.28418    1.000
    Zn4      Zn       0.17868    0.47529    0.51903    1.000
