# CIF file generated by openbabel 3.1.0, see https://openbabel.org
data_I
_chemical_name_common 'image0'
_cell_length_a 25.8717
_cell_length_b 25.8717
_cell_length_c 6.2631
_cell_angle_alpha 90
_cell_angle_beta 90
_cell_angle_gamma 120
_space_group_name_H-M_alt 'P 1'
_space_group_name_Hall 'P 1'
loop_
    _symmetry_equiv_pos_as_xyz
    x,y,z
loop_
    _atom_site_label
    _atom_site_type_symbol
    _atom_site_fract_x
    _atom_site_fract_y
    _atom_site_fract_z
    _atom_site_occupancy
    Cu1      Cu       0.94680    0.63170    0.98590    1.000
    C1       C        0.00620    0.58660    0.69600    1.000
    C2       C        0.02200    0.50560    0.79900    1.000
    C3       C        0.00470    0.54540    0.86600    1.000
    C4       C        0.98840    0.54320    0.08300    1.000
    H1       H        0.03800    0.50930    0.63000    1.000
    O1       O        0.04240    0.60190    0.53900    1.000
    O2       O        0.97800    0.61520    0.74300    1.000
    O3       O        0.97080    0.58360    0.14500    1.000
    Cu2      Cu       0.61347    0.96503    0.31923    1.000
    C5       C        0.67287    0.91993    0.02933    1.000
    C6       C        0.68867    0.83893    0.13233    1.000
    C7       C        0.67137    0.87873    0.19933    1.000
    C8       C        0.65507    0.87653    0.41633    1.000
    H2       H        0.70467    0.84263    0.96333    1.000
    O4       O        0.70907    0.93523    0.87233    1.000
    O5       O        0.64467    0.94853    0.07633    1.000
    O6       O        0.63747    0.91693    0.47833    1.000
    Cu3      Cu       0.28013    0.29837    0.65257    1.000
    C9       C        0.33953    0.25327    0.36267    1.000
    C10      C        0.35533    0.17227    0.46567    1.000
    C11      C        0.33803    0.21207    0.53267    1.000
    C12      C        0.32173    0.20987    0.74967    1.000
    H3       H        0.37133    0.17597    0.29667    1.000
    O7       O        0.37573    0.26857    0.20567    1.000
    O8       O        0.31133    0.28187    0.40967    1.000
    O9       O        0.30413    0.25027    0.81167    1.000
    Cu4      Cu       0.36830    0.31510    0.98590    1.000
    C13      C        0.41340    0.41960    0.69600    1.000
    C14      C        0.49440    0.51640    0.79900    1.000
    C15      C        0.45460    0.45930    0.86600    1.000
    C16      C        0.45680    0.44520    0.08300    1.000
    H4       H        0.49070    0.52870    0.63000    1.000
    O10      O        0.39810    0.44050    0.53900    1.000
    O11      O        0.38480    0.36280    0.74300    1.000
    O12      O        0.41640    0.38720    0.14500    1.000
    Cu5      Cu       0.03497    0.64843    0.31923    1.000
    C17      C        0.08007    0.75293    0.02933    1.000
    C18      C        0.16107    0.84973    0.13233    1.000
    C19      C        0.12127    0.79263    0.19933    1.000
    C20      C        0.12347    0.77853    0.41633    1.000
    H5       H        0.15737    0.86203    0.96333    1.000
    O13      O        0.06477    0.77383    0.87233    1.000
    O14      O        0.05147    0.69613    0.07633    1.000
    O15      O        0.08307    0.72053    0.47833    1.000
    Cu6      Cu       0.70163    0.98177    0.65257    1.000
    C21      C        0.74673    0.08627    0.36267    1.000
    C22      C        0.82773    0.18307    0.46567    1.000
    C23      C        0.78793    0.12597    0.53267    1.000
    C24      C        0.79013    0.11187    0.74967    1.000
    H6       H        0.82403    0.19537    0.29667    1.000
    O16      O        0.73143    0.10717    0.20567    1.000
    O17      O        0.71813    0.02947    0.40967    1.000
    O18      O        0.74973    0.05387    0.81167    1.000
    Cu7      Cu       0.68490    0.05320    0.98590    1.000
    C25      C        0.58040    0.99380    0.69600    1.000
    C26      C        0.48360    0.97800    0.79900    1.000
    C27      C        0.54070    0.99530    0.86600    1.000
    C28      C        0.55480    0.01160    0.08300    1.000
    H7       H        0.47130    0.96200    0.63000    1.000
    O19      O        0.55950    0.95760    0.53900    1.000
    O20      O        0.63720    0.02200    0.74300    1.000
    O21      O        0.61280    0.02920    0.14500    1.000
    Cu8      Cu       0.35157    0.38653    0.31923    1.000
    C29      C        0.24707    0.32713    0.02933    1.000
    C30      C        0.15027    0.31133    0.13233    1.000
    C31      C        0.20737    0.32863    0.19933    1.000
    C32      C        0.22147    0.34493    0.41633    1.000
    H8       H        0.13797    0.29533    0.96333    1.000
    O22      O        0.22617    0.29093    0.87233    1.000
    O23      O        0.30387    0.35533    0.07633    1.000
    O24      O        0.27947    0.36253    0.47833    1.000
    Cu9      Cu       0.01823    0.71987    0.65257    1.000
    C33      C        0.91373    0.66047    0.36267    1.000
    C34      C        0.81693    0.64467    0.46567    1.000
    C35      C        0.87403    0.66197    0.53267    1.000
    C36      C        0.88813    0.67827    0.74967    1.000
    H9       H        0.80463    0.62867    0.29667    1.000
    O25      O        0.89283    0.62427    0.20567    1.000
    O26      O        0.97053    0.68867    0.40967    1.000
    O27      O        0.94613    0.69587    0.81167    1.000
    Cu10     Cu       0.05320    0.36830    0.01410    1.000
    C37      C        0.99380    0.41340    0.30400    1.000
    C38      C        0.97800    0.49440    0.20100    1.000
    C39      C        0.99530    0.45460    0.13400    1.000
    C40      C        0.01160    0.45680    0.91700    1.000
    H10      H        0.96200    0.49070    0.37000    1.000
    O28      O        0.95760    0.39810    0.46100    1.000
    O29      O        0.02200    0.38480    0.25700    1.000
    O30      O        0.02920    0.41640    0.85500    1.000
    Cu11     Cu       0.71987    0.70163    0.34743    1.000
    C41      C        0.66047    0.74673    0.63733    1.000
    C42      C        0.64467    0.82773    0.53433    1.000
    C43      C        0.66197    0.78793    0.46733    1.000
    C44      C        0.67827    0.79013    0.25033    1.000
    H11      H        0.62867    0.82403    0.70333    1.000
    O31      O        0.62427    0.73143    0.79433    1.000
    O32      O        0.68867    0.71813    0.59033    1.000
    O33      O        0.69587    0.74973    0.18833    1.000
    Cu12     Cu       0.38653    0.03497    0.68077    1.000
    C45      C        0.32713    0.08007    0.97067    1.000
    C46      C        0.31133    0.16107    0.86767    1.000
    C47      C        0.32863    0.12127    0.80067    1.000
    C48      C        0.34493    0.12347    0.58367    1.000
    H12      H        0.29533    0.15737    0.03667    1.000
    O34      O        0.29093    0.06477    0.12767    1.000
    O35      O        0.35533    0.05147    0.92367    1.000
    O36      O        0.36253    0.08307    0.52167    1.000
    Cu13     Cu       0.63170    0.68490    0.01410    1.000
    C49      C        0.58660    0.58040    0.30400    1.000
    C50      C        0.50560    0.48360    0.20100    1.000
    C51      C        0.54540    0.54070    0.13400    1.000
    C52      C        0.54320    0.55480    0.91700    1.000
    H13      H        0.50930    0.47130    0.37000    1.000
    O37      O        0.60190    0.55950    0.46100    1.000
    O38      O        0.61520    0.63720    0.25700    1.000
    O39      O        0.58360    0.61280    0.85500    1.000
    Cu14     Cu       0.29837    0.01823    0.34743    1.000
    C53      C        0.25327    0.91373    0.63733    1.000
    C54      C        0.17227    0.81693    0.53433    1.000
    C55      C        0.21207    0.87403    0.46733    1.000
    C56      C        0.20987    0.88813    0.25033    1.000
    H14      H        0.17597    0.80463    0.70333    1.000
    O40      O        0.26857    0.89283    0.79433    1.000
    O41      O        0.28187    0.97053    0.59033    1.000
    O42      O        0.25027    0.94613    0.18833    1.000
    Cu15     Cu       0.96503    0.35157    0.68077    1.000
    C57      C        0.91993    0.24707    0.97067    1.000
    C58      C        0.83893    0.15027    0.86767    1.000
    C59      C        0.87873    0.20737    0.80067    1.000
    C60      C        0.87653    0.22147    0.58367    1.000
    H15      H        0.84263    0.13797    0.03667    1.000
    O43      O        0.93523    0.22617    0.12767    1.000
    O44      O        0.94853    0.30387    0.92367    1.000
    O45      O        0.91693    0.27947    0.52167    1.000
    Cu16     Cu       0.31510    0.94680    0.01410    1.000
    C61      C        0.41960    0.00620    0.30400    1.000
    C62      C        0.51640    0.02200    0.20100    1.000
    C63      C        0.45930    0.00470    0.13400    1.000
    C64      C        0.44520    0.98840    0.91700    1.000
    H16      H        0.52870    0.03800    0.37000    1.000
    O46      O        0.44050    0.04240    0.46100    1.000
    O47      O        0.36280    0.97800    0.25700    1.000
    O48      O        0.38720    0.97080    0.85500    1.000
    Cu17     Cu       0.98177    0.28013    0.34743    1.000
    C65      C        0.08627    0.33953    0.63733    1.000
    C66      C        0.18307    0.35533    0.53433    1.000
    C67      C        0.12597    0.33803    0.46733    1.000
    C68      C        0.11187    0.32173    0.25033    1.000
    H17      H        0.19537    0.37133    0.70333    1.000
    O49      O        0.10717    0.37573    0.79433    1.000
    O50      O        0.02947    0.31133    0.59033    1.000
    O51      O        0.05387    0.30413    0.18833    1.000
    Cu18     Cu       0.64843    0.61347    0.68077    1.000
    C69      C        0.75293    0.67287    0.97067    1.000
    C70      C        0.84973    0.68867    0.86767    1.000
    C71      C        0.79263    0.67137    0.80067    1.000
    C72      C        0.77853    0.65507    0.58367    1.000
    H18      H        0.86203    0.70467    0.03667    1.000
    O52      O        0.77383    0.70907    0.12767    1.000
    O53      O        0.69613    0.64467    0.92367    1.000
    O54      O        0.72053    0.63747    0.52167    1.000
