# CIF file generated by openbabel 3.1.0, see https://openbabel.org
data_I
_chemical_name_common 'image0'
_cell_length_a 22.1152
_cell_length_b 22.1152
_cell_length_c 22.1152
_cell_angle_alpha 90
_cell_angle_beta 90
_cell_angle_gamma 90
_space_group_name_H-M_alt 'P 1'
_space_group_name_Hall 'P 1'
loop_
    _symmetry_equiv_pos_as_xyz
    x,y,z
loop_
    _atom_site_label
    _atom_site_type_symbol
    _atom_site_fract_x
    _atom_site_fract_y
    _atom_site_fract_z
    _atom_site_occupancy
    Ni1      Ni       0.23945    0.30666    0.17772    1.000
    C1       C        0.22140    0.60478    0.30259    1.000
    C2       C        0.20740    0.37407    0.29170    1.000
    C3       C        0.20240    0.43123    0.38880    1.000
    H1       H        0.19850    0.39420    0.40830    1.000
    C4       C        0.21000    0.53966    0.39309    1.000
    H2       H        0.21200    0.57490    0.41590    1.000
    C5       C        0.20820    0.43381    0.32590    1.000
    C6       C        0.20270    0.48420    0.42146    1.000
    C7       C        0.21410    0.54236    0.33122    1.000
    C8       C        0.21530    0.48978    0.29765    1.000
    H3       H        0.22080    0.49160    0.25600    1.000
    O1       O        0.19003    0.32988    0.32130    1.000
    O2       O        0.20578    0.64817    0.33543    1.000
    O3       O        0.24209    0.60592    0.25007    1.000
    O4       O        0.22276    0.37645    0.23812    1.000
    N1       N        0.20120    0.47728    0.48678    1.000
    Ni2      Ni       0.76055    0.69334    0.17772    1.000
    C9       C        0.77860    0.39522    0.30259    1.000
    C10      C        0.79260    0.62593    0.29170    1.000
    C11      C        0.79760    0.56877    0.38880    1.000
    H4       H        0.80150    0.60580    0.40830    1.000
    C12      C        0.79000    0.46034    0.39309    1.000
    H5       H        0.78800    0.42510    0.41590    1.000
    C13      C        0.79180    0.56619    0.32590    1.000
    C14      C        0.79730    0.51580    0.42146    1.000
    C15      C        0.78590    0.45764    0.33122    1.000
    C16      C        0.78470    0.51022    0.29765    1.000
    H6       H        0.77920    0.50840    0.25600    1.000
    O5       O        0.80997    0.67012    0.32130    1.000
    O6       O        0.79422    0.35183    0.33543    1.000
    O7       O        0.75791    0.39408    0.25007    1.000
    O8       O        0.77724    0.62355    0.23812    1.000
    N2       N        0.79880    0.52272    0.48678    1.000
    Ni3      Ni       0.76055    0.30666    0.82228    1.000
    C17      C        0.77860    0.60478    0.69741    1.000
    C18      C        0.79260    0.37407    0.70830    1.000
    C19      C        0.79760    0.43123    0.61120    1.000
    H7       H        0.80150    0.39420    0.59170    1.000
    C20      C        0.79000    0.53966    0.60691    1.000
    H8       H        0.78800    0.57490    0.58410    1.000
    C21      C        0.79180    0.43381    0.67410    1.000
    C22      C        0.79730    0.48420    0.57854    1.000
    C23      C        0.78590    0.54236    0.66878    1.000
    C24      C        0.78470    0.48978    0.70235    1.000
    H9       H        0.77920    0.49160    0.74400    1.000
    O9       O        0.80997    0.32988    0.67870    1.000
    O10      O        0.79422    0.64817    0.66457    1.000
    O11      O        0.75791    0.60592    0.74993    1.000
    O12      O        0.77724    0.37645    0.76188    1.000
    N3       N        0.79880    0.47728    0.51322    1.000
    Ni4      Ni       0.23945    0.69334    0.82228    1.000
    C25      C        0.22140    0.39522    0.69741    1.000
    C26      C        0.20740    0.62593    0.70830    1.000
    C27      C        0.20240    0.56877    0.61120    1.000
    H10      H        0.19850    0.60580    0.59170    1.000
    C28      C        0.21000    0.46034    0.60691    1.000
    H11      H        0.21200    0.42510    0.58410    1.000
    C29      C        0.20820    0.56619    0.67410    1.000
    C30      C        0.20270    0.51580    0.57854    1.000
    C31      C        0.21410    0.45764    0.66878    1.000
    C32      C        0.21530    0.51022    0.70235    1.000
    H12      H        0.22080    0.50840    0.74400    1.000
    O13      O        0.19003    0.67012    0.67870    1.000
    O14      O        0.20578    0.35183    0.66457    1.000
    O15      O        0.24209    0.39408    0.74993    1.000
    O16      O        0.22276    0.62355    0.76188    1.000
    N4       N        0.20120    0.52272    0.51322    1.000
    Ni5      Ni       0.17772    0.23945    0.30666    1.000
    C33      C        0.30259    0.22140    0.60478    1.000
    C34      C        0.29170    0.20740    0.37407    1.000
    C35      C        0.38880    0.20240    0.43123    1.000
    H13      H        0.40830    0.19850    0.39420    1.000
    C36      C        0.39309    0.21000    0.53966    1.000
    H14      H        0.41590    0.21200    0.57490    1.000
    C37      C        0.32590    0.20820    0.43381    1.000
    C38      C        0.42146    0.20270    0.48420    1.000
    C39      C        0.33122    0.21410    0.54236    1.000
    C40      C        0.29765    0.21530    0.48978    1.000
    H15      H        0.25600    0.22080    0.49160    1.000
    O17      O        0.32130    0.19003    0.32988    1.000
    O18      O        0.33543    0.20578    0.64817    1.000
    O19      O        0.25007    0.24209    0.60592    1.000
    O20      O        0.23812    0.22276    0.37645    1.000
    N5       N        0.48678    0.20120    0.47728    1.000
    Ni6      Ni       0.17772    0.76055    0.69334    1.000
    C41      C        0.30259    0.77860    0.39522    1.000
    C42      C        0.29170    0.79260    0.62593    1.000
    C43      C        0.38880    0.79760    0.56877    1.000
    H16      H        0.40830    0.80150    0.60580    1.000
    C44      C        0.39309    0.79000    0.46034    1.000
    H17      H        0.41590    0.78800    0.42510    1.000
    C45      C        0.32590    0.79180    0.56619    1.000
    C46      C        0.42146    0.79730    0.51580    1.000
    C47      C        0.33122    0.78590    0.45764    1.000
    C48      C        0.29765    0.78470    0.51022    1.000
    H18      H        0.25600    0.77920    0.50840    1.000
    O21      O        0.32130    0.80997    0.67012    1.000
    O22      O        0.33543    0.79422    0.35183    1.000
    O23      O        0.25007    0.75791    0.39408    1.000
    O24      O        0.23812    0.77724    0.62355    1.000
    N6       N        0.48678    0.79880    0.52272    1.000
    Ni7      Ni       0.82228    0.76055    0.30666    1.000
    C49      C        0.69741    0.77860    0.60478    1.000
    C50      C        0.70830    0.79260    0.37407    1.000
    C51      C        0.61120    0.79760    0.43123    1.000
    H19      H        0.59170    0.80150    0.39420    1.000
    C52      C        0.60691    0.79000    0.53966    1.000
    H20      H        0.58410    0.78800    0.57490    1.000
    C53      C        0.67410    0.79180    0.43381    1.000
    C54      C        0.57854    0.79730    0.48420    1.000
    C55      C        0.66878    0.78590    0.54236    1.000
    C56      C        0.70235    0.78470    0.48978    1.000
    H21      H        0.74400    0.77920    0.49160    1.000
    O25      O        0.67870    0.80997    0.32988    1.000
    O26      O        0.66457    0.79422    0.64817    1.000
    O27      O        0.74993    0.75791    0.60592    1.000
    O28      O        0.76188    0.77724    0.37645    1.000
    N7       N        0.51322    0.79880    0.47728    1.000
    Ni8      Ni       0.82228    0.23945    0.69334    1.000
    C57      C        0.69741    0.22140    0.39522    1.000
    C58      C        0.70830    0.20740    0.62593    1.000
    C59      C        0.61120    0.20240    0.56877    1.000
    H22      H        0.59170    0.19850    0.60580    1.000
    C60      C        0.60691    0.21000    0.46034    1.000
    H23      H        0.58410    0.21200    0.42510    1.000
    C61      C        0.67410    0.20820    0.56619    1.000
    C62      C        0.57854    0.20270    0.51580    1.000
    C63      C        0.66878    0.21410    0.45764    1.000
    C64      C        0.70235    0.21530    0.51022    1.000
    H24      H        0.74400    0.22080    0.50840    1.000
    O29      O        0.67870    0.19003    0.67012    1.000
    O30      O        0.66457    0.20578    0.35183    1.000
    O31      O        0.74993    0.24209    0.39408    1.000
    O32      O        0.76188    0.22276    0.62355    1.000
    N8       N        0.51322    0.20120    0.52272    1.000
    Ni9      Ni       0.30666    0.17772    0.23945    1.000
    C65      C        0.60478    0.30259    0.22140    1.000
    C66      C        0.37407    0.29170    0.20740    1.000
    C67      C        0.43123    0.38880    0.20240    1.000
    H25      H        0.39420    0.40830    0.19850    1.000
    C68      C        0.53966    0.39309    0.21000    1.000
    H26      H        0.57490    0.41590    0.21200    1.000
    C69      C        0.43381    0.32590    0.20820    1.000
    C70      C        0.48420    0.42146    0.20270    1.000
    C71      C        0.54236    0.33122    0.21410    1.000
    C72      C        0.48978    0.29765    0.21530    1.000
    H27      H        0.49160    0.25600    0.22080    1.000
    O33      O        0.32988    0.32130    0.19003    1.000
    O34      O        0.64817    0.33543    0.20578    1.000
    O35      O        0.60592    0.25007    0.24209    1.000
    O36      O        0.37645    0.23812    0.22276    1.000
    N9       N        0.47728    0.48678    0.20120    1.000
    Ni10     Ni       0.69334    0.17772    0.76055    1.000
    C73      C        0.39522    0.30259    0.77860    1.000
    C74      C        0.62593    0.29170    0.79260    1.000
    C75      C        0.56877    0.38880    0.79760    1.000
    H28      H        0.60580    0.40830    0.80150    1.000
    C76      C        0.46034    0.39309    0.79000    1.000
    H29      H        0.42510    0.41590    0.78800    1.000
    C77      C        0.56619    0.32590    0.79180    1.000
    C78      C        0.51580    0.42146    0.79730    1.000
    C79      C        0.45764    0.33122    0.78590    1.000
    C80      C        0.51022    0.29765    0.78470    1.000
    H30      H        0.50840    0.25600    0.77920    1.000
    O37      O        0.67012    0.32130    0.80997    1.000
    O38      O        0.35183    0.33543    0.79422    1.000
    O39      O        0.39408    0.25007    0.75791    1.000
    O40      O        0.62355    0.23812    0.77724    1.000
    N10      N        0.52272    0.48678    0.79880    1.000
    Ni11     Ni       0.30666    0.82228    0.76055    1.000
    C81      C        0.60478    0.69741    0.77860    1.000
    C82      C        0.37407    0.70830    0.79260    1.000
    C83      C        0.43123    0.61120    0.79760    1.000
    H31      H        0.39420    0.59170    0.80150    1.000
    C84      C        0.53966    0.60691    0.79000    1.000
    H32      H        0.57490    0.58410    0.78800    1.000
    C85      C        0.43381    0.67410    0.79180    1.000
    C86      C        0.48420    0.57854    0.79730    1.000
    C87      C        0.54236    0.66878    0.78590    1.000
    C88      C        0.48978    0.70235    0.78470    1.000
    H33      H        0.49160    0.74400    0.77920    1.000
    O41      O        0.32988    0.67870    0.80997    1.000
    O42      O        0.64817    0.66457    0.79422    1.000
    O43      O        0.60592    0.74993    0.75791    1.000
    O44      O        0.37645    0.76188    0.77724    1.000
    N11      N        0.47728    0.51322    0.79880    1.000
    Ni12     Ni       0.69334    0.82228    0.23945    1.000
    C89      C        0.39522    0.69741    0.22140    1.000
    C90      C        0.62593    0.70830    0.20740    1.000
    C91      C        0.56877    0.61120    0.20240    1.000
    H34      H        0.60580    0.59170    0.19850    1.000
    C92      C        0.46034    0.60691    0.21000    1.000
    H35      H        0.42510    0.58410    0.21200    1.000
    C93      C        0.56619    0.67410    0.20820    1.000
    C94      C        0.51580    0.57854    0.20270    1.000
    C95      C        0.45764    0.66878    0.21410    1.000
    C96      C        0.51022    0.70235    0.21530    1.000
    H36      H        0.50840    0.74400    0.22080    1.000
    O45      O        0.67012    0.67870    0.19003    1.000
    O46      O        0.35183    0.66457    0.20578    1.000
    O47      O        0.39408    0.74993    0.24209    1.000
    O48      O        0.62355    0.76188    0.22276    1.000
    N12      N        0.52272    0.51322    0.20120    1.000
    Ni13     Ni       0.80666    0.73945    0.67772    1.000
    C97      C        0.10478    0.72140    0.80259    1.000
    C98      C        0.87407    0.70740    0.79170    1.000
    C99      C        0.93123    0.70240    0.88880    1.000
    H37      H        0.89420    0.69850    0.90830    1.000
    C100     C        0.03966    0.71000    0.89309    1.000
    H38      H        0.07490    0.71200    0.91590    1.000
    C101     C        0.93381    0.70820    0.82590    1.000
    C102     C        0.98420    0.70270    0.92146    1.000
    C103     C        0.04236    0.71410    0.83122    1.000
    C104     C        0.98978    0.71530    0.79765    1.000
    H39      H        0.99160    0.72080    0.75600    1.000
    O49      O        0.82988    0.69003    0.82130    1.000
    O50      O        0.14817    0.70578    0.83543    1.000
    O51      O        0.10592    0.74209    0.75007    1.000
    O52      O        0.87645    0.72276    0.73812    1.000
    N13      N        0.97728    0.70120    0.98678    1.000
    Ni14     Ni       0.19334    0.26055    0.67772    1.000
    C105     C        0.89522    0.27860    0.80259    1.000
    C106     C        0.12593    0.29260    0.79170    1.000
    C107     C        0.06877    0.29760    0.88880    1.000
    H40      H        0.10580    0.30150    0.90830    1.000
    C108     C        0.96034    0.29000    0.89309    1.000
    H41      H        0.92510    0.28800    0.91590    1.000
    C109     C        0.06619    0.29180    0.82590    1.000
    C110     C        0.01580    0.29730    0.92146    1.000
    C111     C        0.95764    0.28590    0.83122    1.000
    C112     C        0.01022    0.28470    0.79765    1.000
    H42      H        0.00840    0.27920    0.75600    1.000
    O53      O        0.17012    0.30997    0.82130    1.000
    O54      O        0.85183    0.29422    0.83543    1.000
    O55      O        0.89408    0.25791    0.75007    1.000
    O56      O        0.12355    0.27724    0.73812    1.000
    N14      N        0.02272    0.29880    0.98678    1.000
    Ni15     Ni       0.80666    0.26055    0.32228    1.000
    C113     C        0.10478    0.27860    0.19741    1.000
    C114     C        0.87407    0.29260    0.20830    1.000
    C115     C        0.93123    0.29760    0.11120    1.000
    H43      H        0.89420    0.30150    0.09170    1.000
    C116     C        0.03966    0.29000    0.10691    1.000
    H44      H        0.07490    0.28800    0.08410    1.000
    C117     C        0.93381    0.29180    0.17410    1.000
    C118     C        0.98420    0.29730    0.07854    1.000
    C119     C        0.04236    0.28590    0.16878    1.000
    C120     C        0.98978    0.28470    0.20235    1.000
    H45      H        0.99160    0.27920    0.24400    1.000
    O57      O        0.82988    0.30997    0.17870    1.000
    O58      O        0.14817    0.29422    0.16457    1.000
    O59      O        0.10592    0.25791    0.24993    1.000
    O60      O        0.87645    0.27724    0.26188    1.000
    N15      N        0.97728    0.29880    0.01322    1.000
    Ni16     Ni       0.19334    0.73945    0.32228    1.000
    C121     C        0.89522    0.72140    0.19741    1.000
    C122     C        0.12593    0.70740    0.20830    1.000
    C123     C        0.06877    0.70240    0.11120    1.000
    H46      H        0.10580    0.69850    0.09170    1.000
    C124     C        0.96034    0.71000    0.10691    1.000
    H47      H        0.92510    0.71200    0.08410    1.000
    C125     C        0.06619    0.70820    0.17410    1.000
    C126     C        0.01580    0.70270    0.07854    1.000
    C127     C        0.95764    0.71410    0.16878    1.000
    C128     C        0.01022    0.71530    0.20235    1.000
    H48      H        0.00840    0.72080    0.24400    1.000
    O61      O        0.17012    0.69003    0.17870    1.000
    O62      O        0.85183    0.70578    0.16457    1.000
    O63      O        0.89408    0.74209    0.24993    1.000
    O64      O        0.12355    0.72276    0.26188    1.000
    N16      N        0.02272    0.70120    0.01322    1.000
    Ni17     Ni       0.73945    0.67772    0.80666    1.000
    C129     C        0.72140    0.80259    0.10478    1.000
    C130     C        0.70740    0.79170    0.87407    1.000
    C131     C        0.70240    0.88880    0.93123    1.000
    H49      H        0.69850    0.90830    0.89420    1.000
    C132     C        0.71000    0.89309    0.03966    1.000
    H50      H        0.71200    0.91590    0.07490    1.000
    C133     C        0.70820    0.82590    0.93381    1.000
    C134     C        0.70270    0.92146    0.98420    1.000
    C135     C        0.71410    0.83122    0.04236    1.000
    C136     C        0.71530    0.79765    0.98978    1.000
    H51      H        0.72080    0.75600    0.99160    1.000
    O65      O        0.69003    0.82130    0.82988    1.000
    O66      O        0.70578    0.83543    0.14817    1.000
    O67      O        0.74209    0.75007    0.10592    1.000
    O68      O        0.72276    0.73812    0.87645    1.000
    N17      N        0.70120    0.98678    0.97728    1.000
    Ni18     Ni       0.26055    0.67772    0.19334    1.000
    C137     C        0.27860    0.80259    0.89522    1.000
    C138     C        0.29260    0.79170    0.12593    1.000
    C139     C        0.29760    0.88880    0.06877    1.000
    H52      H        0.30150    0.90830    0.10580    1.000
    C140     C        0.29000    0.89309    0.96034    1.000
    H53      H        0.28800    0.91590    0.92510    1.000
    C141     C        0.29180    0.82590    0.06619    1.000
    C142     C        0.29730    0.92146    0.01580    1.000
    C143     C        0.28590    0.83122    0.95764    1.000
    C144     C        0.28470    0.79765    0.01022    1.000
    H54      H        0.27920    0.75600    0.00840    1.000
    O69      O        0.30997    0.82130    0.17012    1.000
    O70      O        0.29422    0.83543    0.85183    1.000
    O71      O        0.25791    0.75007    0.89408    1.000
    O72      O        0.27724    0.73812    0.12355    1.000
    N18      N        0.29880    0.98678    0.02272    1.000
    Ni19     Ni       0.26055    0.32228    0.80666    1.000
    C145     C        0.27860    0.19741    0.10478    1.000
    C146     C        0.29260    0.20830    0.87407    1.000
    C147     C        0.29760    0.11120    0.93123    1.000
    H55      H        0.30150    0.09170    0.89420    1.000
    C148     C        0.29000    0.10691    0.03966    1.000
    H56      H        0.28800    0.08410    0.07490    1.000
    C149     C        0.29180    0.17410    0.93381    1.000
    C150     C        0.29730    0.07854    0.98420    1.000
    C151     C        0.28590    0.16878    0.04236    1.000
    C152     C        0.28470    0.20235    0.98978    1.000
    H57      H        0.27920    0.24400    0.99160    1.000
    O73      O        0.30997    0.17870    0.82988    1.000
    O74      O        0.29422    0.16457    0.14817    1.000
    O75      O        0.25791    0.24993    0.10592    1.000
    O76      O        0.27724    0.26188    0.87645    1.000
    N19      N        0.29880    0.01322    0.97728    1.000
    Ni20     Ni       0.73945    0.32228    0.19334    1.000
    C153     C        0.72140    0.19741    0.89522    1.000
    C154     C        0.70740    0.20830    0.12593    1.000
    C155     C        0.70240    0.11120    0.06877    1.000
    H58      H        0.69850    0.09170    0.10580    1.000
    C156     C        0.71000    0.10691    0.96034    1.000
    H59      H        0.71200    0.08410    0.92510    1.000
    C157     C        0.70820    0.17410    0.06619    1.000
    C158     C        0.70270    0.07854    0.01580    1.000
    C159     C        0.71410    0.16878    0.95764    1.000
    C160     C        0.71530    0.20235    0.01022    1.000
    H60      H        0.72080    0.24400    0.00840    1.000
    O77      O        0.69003    0.17870    0.17012    1.000
    O78      O        0.70578    0.16457    0.85183    1.000
    O79      O        0.74209    0.24993    0.89408    1.000
    O80      O        0.72276    0.26188    0.12355    1.000
    N20      N        0.70120    0.01322    0.02272    1.000
    Ni21     Ni       0.67772    0.80666    0.73945    1.000
    C161     C        0.80259    0.10478    0.72140    1.000
    C162     C        0.79170    0.87407    0.70740    1.000
    C163     C        0.88880    0.93123    0.70240    1.000
    H61      H        0.90830    0.89420    0.69850    1.000
    C164     C        0.89309    0.03966    0.71000    1.000
    H62      H        0.91590    0.07490    0.71200    1.000
    C165     C        0.82590    0.93381    0.70820    1.000
    C166     C        0.92146    0.98420    0.70270    1.000
    C167     C        0.83122    0.04236    0.71410    1.000
    C168     C        0.79765    0.98978    0.71530    1.000
    H63      H        0.75600    0.99160    0.72080    1.000
    O81      O        0.82130    0.82988    0.69003    1.000
    O82      O        0.83543    0.14817    0.70578    1.000
    O83      O        0.75007    0.10592    0.74209    1.000
    O84      O        0.73812    0.87645    0.72276    1.000
    N21      N        0.98678    0.97728    0.70120    1.000
    Ni22     Ni       0.67772    0.19334    0.26055    1.000
    C169     C        0.80259    0.89522    0.27860    1.000
    C170     C        0.79170    0.12593    0.29260    1.000
    C171     C        0.88880    0.06877    0.29760    1.000
    H64      H        0.90830    0.10580    0.30150    1.000
    C172     C        0.89309    0.96034    0.29000    1.000
    H65      H        0.91590    0.92510    0.28800    1.000
    C173     C        0.82590    0.06619    0.29180    1.000
    C174     C        0.92146    0.01580    0.29730    1.000
    C175     C        0.83122    0.95764    0.28590    1.000
    C176     C        0.79765    0.01022    0.28470    1.000
    H66      H        0.75600    0.00840    0.27920    1.000
    O85      O        0.82130    0.17012    0.30997    1.000
    O86      O        0.83543    0.85183    0.29422    1.000
    O87      O        0.75007    0.89408    0.25791    1.000
    O88      O        0.73812    0.12355    0.27724    1.000
    N22      N        0.98678    0.02272    0.29880    1.000
    Ni23     Ni       0.32228    0.80666    0.26055    1.000
    C177     C        0.19741    0.10478    0.27860    1.000
    C178     C        0.20830    0.87407    0.29260    1.000
    C179     C        0.11120    0.93123    0.29760    1.000
    H67      H        0.09170    0.89420    0.30150    1.000
    C180     C        0.10691    0.03966    0.29000    1.000
    H68      H        0.08410    0.07490    0.28800    1.000
    C181     C        0.17410    0.93381    0.29180    1.000
    C182     C        0.07854    0.98420    0.29730    1.000
    C183     C        0.16878    0.04236    0.28590    1.000
    C184     C        0.20235    0.98978    0.28470    1.000
    H69      H        0.24400    0.99160    0.27920    1.000
    O89      O        0.17870    0.82988    0.30997    1.000
    O90      O        0.16457    0.14817    0.29422    1.000
    O91      O        0.24993    0.10592    0.25791    1.000
    O92      O        0.26188    0.87645    0.27724    1.000
    N23      N        0.01322    0.97728    0.29880    1.000
    Ni24     Ni       0.32228    0.19334    0.73945    1.000
    C185     C        0.19741    0.89522    0.72140    1.000
    C186     C        0.20830    0.12593    0.70740    1.000
    C187     C        0.11120    0.06877    0.70240    1.000
    H70      H        0.09170    0.10580    0.69850    1.000
    C188     C        0.10691    0.96034    0.71000    1.000
    H71      H        0.08410    0.92510    0.71200    1.000
    C189     C        0.17410    0.06619    0.70820    1.000
    C190     C        0.07854    0.01580    0.70270    1.000
    C191     C        0.16878    0.95764    0.71410    1.000
    C192     C        0.20235    0.01022    0.71530    1.000
    H72      H        0.24400    0.00840    0.72080    1.000
    O93      O        0.17870    0.17012    0.69003    1.000
    O94      O        0.16457    0.85183    0.70578    1.000
    O95      O        0.24993    0.89408    0.74209    1.000
    O96      O        0.26188    0.12355    0.72276    1.000
    N24      N        0.01322    0.02272    0.70120    1.000
    O97      O        0.23843    0.23843    0.23843    1.000
    O98      O        0.76157    0.76157    0.23843    1.000
    O99      O        0.76157    0.23843    0.76157    1.000
    O100     O        0.23843    0.76157    0.76157    1.000
    O101     O        0.73843    0.73843    0.73843    1.000
    O102     O        0.26157    0.26157    0.73843    1.000
    O103     O        0.73843    0.26157    0.26157    1.000
    O104     O        0.26157    0.73843    0.26157    1.000
