# CIF file generated by openbabel 3.1.0, see https://openbabel.org
data_I
_chemical_name_common 'image0'
_cell_length_a 10.4839
_cell_length_b 11.84
_cell_length_c 14.034
_cell_angle_alpha 105.645
_cell_angle_beta 101.222
_cell_angle_gamma 112.358
_space_group_name_H-M_alt 'P 1'
_space_group_name_Hall 'P 1'
loop_
    _symmetry_equiv_pos_as_xyz
    x,y,z
loop_
    _atom_site_label
    _atom_site_type_symbol
    _atom_site_fract_x
    _atom_site_fract_y
    _atom_site_fract_z
    _atom_site_occupancy
    Fe1      Fe       0.81388    0.00651    0.78586    1.000
    Fe2      Fe       0.44780    0.72517    0.69138    1.000
    N1       N        0.04902    0.06856    0.84100    1.000
    C1       C        0.11110    0.10811    0.94487    1.000
    H1       H        0.05130    0.10430    0.98620    1.000
    C2       C        0.25960    0.15451    0.99427    1.000
    C3       C        0.34930    0.15900    0.93286    1.000
    H2       H        0.44980    0.19230    0.96330    1.000
    C4       C        0.13570    0.06920    0.78213    1.000
    H3       H        0.09390    0.03960    0.70970    1.000
    C5       C        0.28430    0.11190    0.82397    1.000
    H4       H        0.34030    0.10930    0.78030    1.000
    O1       O        0.44759    0.25845    0.16001    1.000
    O2       O        0.21583    0.14511    0.15080    1.000
    N2       N        0.27412    0.74846    0.75216    1.000
    C6       C        0.31200    0.18928    0.11118    1.000
    C7       C        0.30550    0.79991    0.85627    1.000
    H5       H        0.40040    0.82920    0.89910    1.000
    C8       C        0.20440    0.81208    0.90405    1.000
    C9       C        0.06390    0.77301    0.84083    1.000
    H6       H        0.99370    0.78020    0.87010    1.000
    N3       N        0.83664    0.16589    0.72951    1.000
    C10      C        0.76000    0.13734    0.63036    1.000
    H7       H        0.70470    0.04910    0.58560    1.000
    C11      C        0.92360    0.39480    0.75988    1.000
    H8       H        0.98140    0.48220    0.80570    1.000
    C12      C        0.91730    0.29360    0.79299    1.000
    H9       H        0.97090    0.31480    0.86190    1.000
    C13      C        0.75950    0.23289    0.59158    1.000
    C14      C        0.84350    0.36490    0.65822    1.000
    H10      H        0.84560    0.43170    0.63470    1.000
    O3       O        0.57459    0.94110    0.74247    1.000
    O4       O        0.39677    0.30250    0.38165    1.000
    O5       O        0.15885    0.87205    0.06435    1.000
    O6       O        0.21066    0.11131    0.36027    1.000
    O7       O        0.66502    0.28485    0.45179    1.000
    O8       O        0.60069    0.07212    0.42347    1.000
    N4       N        0.32698    0.51021    0.63441    1.000
    O9       O        0.38789    0.91699    0.07018    1.000
    C15      C        0.33470    0.43986    0.54515    1.000
    H11      H        0.38580    0.48530    0.50910    1.000
    C16      C        0.25490    0.87117    0.02246    1.000
    C17      C        0.29500    0.23382    0.40689    1.000
    C18      C        0.13730    0.71060    0.69151    1.000
    H12      H        0.11320    0.67480    0.61900    1.000
    C19      C        0.03070    0.72270    0.73231    1.000
    H13      H        0.93810    0.69750    0.68780    1.000
    C20      C        0.66740    0.19203    0.47942    1.000
    C21      C        0.27080    0.30341    0.50364    1.000
    C22      C        0.25150    0.44380    0.68472    1.000
    H14      H        0.24540    0.49110    0.74690    1.000
    C23      C        0.19040    0.23550    0.55567    1.000
    H15      H        0.14330    0.14370    0.52910    1.000
    C24      C        0.18190    0.30710    0.64770    1.000
    H16      H        0.12980    0.26400    0.68450    1.000
    Fe3      Fe       0.18612    0.99349    0.21414    1.000
    Fe4      Fe       0.55220    0.27483    0.30861    1.000
    N5       N        0.95098    0.93144    0.15900    1.000
    C25      C        0.88890    0.89189    0.05513    1.000
    H17      H        0.94870    0.89570    0.01380    1.000
    C26      C        0.74040    0.84549    0.00573    1.000
    C27      C        0.65070    0.84100    0.06714    1.000
    H18      H        0.55020    0.80770    0.03670    1.000
    C28      C        0.86430    0.93080    0.21787    1.000
    H19      H        0.90610    0.96040    0.29030    1.000
    C29      C        0.71570    0.88810    0.17603    1.000
    H20      H        0.65970    0.89070    0.21970    1.000
    O10      O        0.55241    0.74155    0.83999    1.000
    O11      O        0.78417    0.85489    0.84920    1.000
    N6       N        0.72588    0.25154    0.24784    1.000
    C30      C        0.68800    0.81072    0.88882    1.000
    C31      C        0.69450    0.20009    0.14373    1.000
    H21      H        0.59960    0.17080    0.10090    1.000
    C32      C        0.79560    0.18792    0.09595    1.000
    C33      C        0.93610    0.22699    0.15917    1.000
    H22      H        0.00630    0.21980    0.12990    1.000
    N7       N        0.16336    0.83411    0.27049    1.000
    C34      C        0.24000    0.86266    0.36964    1.000
    H23      H        0.29530    0.95090    0.41440    1.000
    C35      C        0.07640    0.60520    0.24012    1.000
    H24      H        0.01860    0.51780    0.19430    1.000
    C36      C        0.08270    0.70640    0.20701    1.000
    H25      H        0.02910    0.68520    0.13810    1.000
    C37      C        0.24050    0.76711    0.40842    1.000
    C38      C        0.15650    0.63510    0.34178    1.000
    H26      H        0.15440    0.56830    0.36530    1.000
    O12      O        0.42541    0.05890    0.25753    1.000
    O13      O        0.60323    0.69750    0.61835    1.000
    O14      O        0.84115    0.12795    0.93565    1.000
    O15      O        0.78934    0.88869    0.63973    1.000
    O16      O        0.33498    0.71515    0.54821    1.000
    O17      O        0.39931    0.92788    0.57653    1.000
    N8       N        0.67302    0.48979    0.36559    1.000
    O18      O        0.61211    0.08301    0.92982    1.000
    C39      C        0.66530    0.56014    0.45485    1.000
    H27      H        0.61420    0.51470    0.49090    1.000
    C40      C        0.74510    0.12883    0.97754    1.000
    C41      C        0.70500    0.76618    0.59311    1.000
    C42      C        0.86270    0.28940    0.30849    1.000
    H28      H        0.88680    0.32520    0.38100    1.000
    C43      C        0.96930    0.27730    0.26769    1.000
    H29      H        0.06190    0.30250    0.31220    1.000
    C44      C        0.33260    0.80797    0.52058    1.000
    C45      C        0.72920    0.69659    0.49636    1.000
    C46      C        0.74850    0.55620    0.31528    1.000
    H30      H        0.75460    0.50890    0.25310    1.000
    C47      C        0.80960    0.76450    0.44433    1.000
    H31      H        0.85670    0.85630    0.47090    1.000
    C48      C        0.81810    0.69290    0.35230    1.000
    H32      H        0.87020    0.73600    0.31550    1.000
