# CIF file generated by openbabel 3.1.0, see https://openbabel.org
data_I
_chemical_name_common 'image0'
_cell_length_a 26.1284
_cell_length_b 26.1284
_cell_length_c 34.1663
_cell_angle_alpha 90
_cell_angle_beta 90
_cell_angle_gamma 90
_space_group_name_H-M_alt 'P 1'
_space_group_name_Hall 'P 1'
loop_
    _symmetry_equiv_pos_as_xyz
    x,y,z
loop_
    _atom_site_label
    _atom_site_type_symbol
    _atom_site_fract_x
    _atom_site_fract_y
    _atom_site_fract_z
    _atom_site_occupancy
    Cu1      Cu       0.59977    0.23092    0.78121    1.000
    O1       O        0.75442    0.96367    0.74371    1.000
    O2       O        0.65934    0.21854    0.81539    1.000
    Cu2      Cu       0.57499    0.29635    0.83657    1.000
    O3       O        0.86525    0.20993    0.74319    1.000
    C1       C        0.78580    0.99310    0.72733    1.000
    C2       C        0.66770    0.24290    0.84648    1.000
    O4       O        0.80757    0.98600    0.69501    1.000
    O5       O        0.63907    0.27691    0.86085    1.000
    C3       C        0.80130    0.04080    0.74951    1.000
    C4       C        0.71500    0.23060    0.86888    1.000
    C5       C        0.78960    0.04620    0.78844    1.000
    C6       C        0.82840    0.07930    0.72986    1.000
    C7       C        0.74350    0.18700    0.86001    1.000
    C8       C        0.73110    0.26320    0.89857    1.000
    C9       C        0.80440    0.08870    0.80927    1.000
    H1       H        0.77090    0.01990    0.80130    1.000
    H2       H        0.83820    0.07500    0.70330    1.000
    C10      C        0.84070    0.12370    0.74980    1.000
    H3       H        0.73250    0.16460    0.83980    1.000
    C11      C        0.78800    0.17630    0.88094    1.000
    C12      C        0.77670    0.25420    0.91780    1.000
    H4       H        0.71060    0.29170    0.90570    1.000
    N1       N        0.79410    0.08970    0.85102    1.000
    C13      C        0.82820    0.12820    0.78932    1.000
    C14      C        0.86640    0.16620    0.72785    1.000
    C15      C        0.80500    0.21050    0.90891    1.000
    C16      C        0.81690    0.12970    0.87459    1.000
    C17      C        0.79580    0.29050    0.94794    1.000
    H5       H        0.77430    0.06640    0.86180    1.000
    H6       H        0.83610    0.15900    0.80280    1.000
    O6       O        0.88806    0.15438    0.69647    1.000
    H7       H        0.83630    0.20420    0.92220    1.000
    H8       H        0.84980    0.13930    0.86230    1.000
    H9       H        0.82490    0.11490    0.90060    1.000
    O7       O        0.76377    0.32415    0.95964    1.000
    O8       O        0.84053    0.28570    0.96022    1.000
    O9       O        0.56062    0.18027    0.81126    1.000
    O10      O        0.41887    0.19235    0.95959    1.000
    O11      O        0.38168    0.11453    0.95912    1.000
    C18      C        0.41330    0.14710    0.94714    1.000
    C19      C        0.44700    0.13140    0.91321    1.000
    C20      C        0.44680    0.08110    0.90010    1.000
    C21      C        0.47830    0.16720    0.89494    1.000
    H10      H        0.42470    0.05690    0.91210    1.000
    C22      C        0.47820    0.06580    0.87000    1.000
    C23      C        0.50830    0.15270    0.86350    1.000
    H11      H        0.47910    0.20160    0.90400    1.000
    C24      C        0.50800    0.10260    0.85060    1.000
    N2       N        0.47970    0.01160    0.86040    1.000
    C25      C        0.53920    0.19300    0.84297    1.000
    H12      H        0.52790    0.09300    0.82850    1.000
    O12      O        0.54258    0.23575    0.85932    1.000
    O13      O        0.70470    0.40770    0.01480    1.000
    H13      H        0.70210    0.43680    0.00390    1.000
    Cu3      Cu       0.09977    0.73092    0.28121    1.000
    O14      O        0.25442    0.46367    0.24371    1.000
    O15      O        0.15934    0.71854    0.31539    1.000
    Cu4      Cu       0.07499    0.79635    0.33657    1.000
    O16      O        0.36525    0.70993    0.24319    1.000
    C26      C        0.28580    0.49310    0.22733    1.000
    C27      C        0.16770    0.74290    0.34648    1.000
    O17      O        0.30757    0.48600    0.19501    1.000
    O18      O        0.13907    0.77691    0.36085    1.000
    C28      C        0.30130    0.54080    0.24951    1.000
    C29      C        0.21500    0.73060    0.36888    1.000
    C30      C        0.28960    0.54620    0.28844    1.000
    C31      C        0.32840    0.57930    0.22986    1.000
    C32      C        0.24350    0.68700    0.36001    1.000
    C33      C        0.23110    0.76320    0.39857    1.000
    C34      C        0.30440    0.58870    0.30927    1.000
    H14      H        0.27090    0.51990    0.30130    1.000
    H15      H        0.33820    0.57500    0.20330    1.000
    C35      C        0.34070    0.62370    0.24980    1.000
    H16      H        0.23250    0.66460    0.33980    1.000
    C36      C        0.28800    0.67630    0.38094    1.000
    C37      C        0.27670    0.75420    0.41780    1.000
    H17      H        0.21060    0.79170    0.40570    1.000
    N3       N        0.29410    0.58970    0.35102    1.000
    C38      C        0.32820    0.62820    0.28932    1.000
    C39      C        0.36640    0.66620    0.22785    1.000
    C40      C        0.30500    0.71050    0.40891    1.000
    C41      C        0.31690    0.62970    0.37459    1.000
    C42      C        0.29580    0.79050    0.44794    1.000
    H18      H        0.27430    0.56640    0.36180    1.000
    H19      H        0.33610    0.65900    0.30280    1.000
    O19      O        0.38806    0.65438    0.19647    1.000
    H20      H        0.33630    0.70420    0.42220    1.000
    H21      H        0.34980    0.63930    0.36230    1.000
    H22      H        0.32490    0.61490    0.40060    1.000
    O20      O        0.26377    0.82415    0.45964    1.000
    O21      O        0.34053    0.78570    0.46022    1.000
    O22      O        0.06062    0.68027    0.31126    1.000
    O23      O        0.91887    0.69235    0.45959    1.000
    O24      O        0.88168    0.61453    0.45912    1.000
    C43      C        0.91330    0.64710    0.44714    1.000
    C44      C        0.94700    0.63140    0.41321    1.000
    C45      C        0.94680    0.58110    0.40010    1.000
    C46      C        0.97830    0.66720    0.39494    1.000
    H23      H        0.92470    0.55690    0.41210    1.000
    C47      C        0.97820    0.56580    0.37000    1.000
    C48      C        0.00830    0.65270    0.36350    1.000
    H24      H        0.97910    0.70160    0.40400    1.000
    C49      C        0.00800    0.60260    0.35060    1.000
    N4       N        0.97970    0.51160    0.36040    1.000
    C50      C        0.03920    0.69300    0.34297    1.000
    H25      H        0.02790    0.59300    0.32850    1.000
    O25      O        0.04258    0.73575    0.35932    1.000
    O26      O        0.20470    0.90770    0.51480    1.000
    H26      H        0.20210    0.93680    0.50390    1.000
    Cu5      Cu       0.40023    0.76908    0.78121    1.000
    O27      O        0.24558    0.03633    0.74371    1.000
    O28      O        0.34066    0.78146    0.81539    1.000
    Cu6      Cu       0.42501    0.70365    0.83657    1.000
    O29      O        0.13475    0.79007    0.74319    1.000
    C51      C        0.21420    0.00690    0.72733    1.000
    C52      C        0.33230    0.75710    0.84648    1.000
    O30      O        0.19243    0.01400    0.69501    1.000
    O31      O        0.36093    0.72309    0.86085    1.000
    C53      C        0.19870    0.95920    0.74951    1.000
    C54      C        0.28500    0.76940    0.86888    1.000
    C55      C        0.21040    0.95380    0.78844    1.000
    C56      C        0.17160    0.92070    0.72986    1.000
    C57      C        0.25650    0.81300    0.86001    1.000
    C58      C        0.26890    0.73680    0.89857    1.000
    C59      C        0.19560    0.91130    0.80927    1.000
    H27      H        0.22910    0.98010    0.80130    1.000
    H28      H        0.16180    0.92500    0.70330    1.000
    C60      C        0.15930    0.87630    0.74980    1.000
    H29      H        0.26750    0.83540    0.83980    1.000
    C61      C        0.21200    0.82370    0.88094    1.000
    C62      C        0.22330    0.74580    0.91780    1.000
    H30      H        0.28940    0.70830    0.90570    1.000
    N5       N        0.20590    0.91030    0.85102    1.000
    C63      C        0.17180    0.87180    0.78932    1.000
    C64      C        0.13360    0.83380    0.72785    1.000
    C65      C        0.19500    0.78950    0.90891    1.000
    C66      C        0.18310    0.87030    0.87459    1.000
    C67      C        0.20420    0.70950    0.94794    1.000
    H31      H        0.22570    0.93360    0.86180    1.000
    H32      H        0.16390    0.84100    0.80280    1.000
    O32      O        0.11194    0.84562    0.69647    1.000
    H33      H        0.16370    0.79580    0.92220    1.000
    H34      H        0.15020    0.86070    0.86230    1.000
    H35      H        0.17510    0.88510    0.90060    1.000
    O33      O        0.23623    0.67585    0.95964    1.000
    O34      O        0.15947    0.71430    0.96022    1.000
    O35      O        0.43938    0.81973    0.81126    1.000
    O36      O        0.58113    0.80765    0.95959    1.000
    O37      O        0.61832    0.88547    0.95912    1.000
    C68      C        0.58670    0.85290    0.94714    1.000
    C69      C        0.55300    0.86860    0.91321    1.000
    C70      C        0.55320    0.91890    0.90010    1.000
    C71      C        0.52170    0.83280    0.89494    1.000
    H36      H        0.57530    0.94310    0.91210    1.000
    C72      C        0.52180    0.93420    0.87000    1.000
    C73      C        0.49170    0.84730    0.86350    1.000
    H37      H        0.52090    0.79840    0.90400    1.000
    C74      C        0.49200    0.89740    0.85060    1.000
    N6       N        0.52030    0.98840    0.86040    1.000
    C75      C        0.46080    0.80700    0.84297    1.000
    H38      H        0.47210    0.90700    0.82850    1.000
    O38      O        0.45742    0.76425    0.85932    1.000
    O39      O        0.29530    0.59230    0.01480    1.000
    H39      H        0.29790    0.56320    0.00390    1.000
    Cu7      Cu       0.90023    0.26908    0.28121    1.000
    O40      O        0.74558    0.53633    0.24371    1.000
    O41      O        0.84066    0.28146    0.31539    1.000
    Cu8      Cu       0.92501    0.20365    0.33657    1.000
    O42      O        0.63475    0.29007    0.24319    1.000
    C76      C        0.71420    0.50690    0.22733    1.000
    C77      C        0.83230    0.25710    0.34648    1.000
    O43      O        0.69243    0.51400    0.19501    1.000
    O44      O        0.86093    0.22309    0.36085    1.000
    C78      C        0.69870    0.45920    0.24951    1.000
    C79      C        0.78500    0.26940    0.36888    1.000
    C80      C        0.71040    0.45380    0.28844    1.000
    C81      C        0.67160    0.42070    0.22986    1.000
    C82      C        0.75650    0.31300    0.36001    1.000
    C83      C        0.76890    0.23680    0.39857    1.000
    C84      C        0.69560    0.41130    0.30927    1.000
    H40      H        0.72910    0.48010    0.30130    1.000
    H41      H        0.66180    0.42500    0.20330    1.000
    C85      C        0.65930    0.37630    0.24980    1.000
    H42      H        0.76750    0.33540    0.33980    1.000
    C86      C        0.71200    0.32370    0.38094    1.000
    C87      C        0.72330    0.24580    0.41780    1.000
    H43      H        0.78940    0.20830    0.40570    1.000
    N7       N        0.70590    0.41030    0.35102    1.000
    C88      C        0.67180    0.37180    0.28932    1.000
    C89      C        0.63360    0.33380    0.22785    1.000
    C90      C        0.69500    0.28950    0.40891    1.000
    C91      C        0.68310    0.37030    0.37459    1.000
    C92      C        0.70420    0.20950    0.44794    1.000
    H44      H        0.72570    0.43360    0.36180    1.000
    H45      H        0.66390    0.34100    0.30280    1.000
    O45      O        0.61194    0.34562    0.19647    1.000
    H46      H        0.66370    0.29580    0.42220    1.000
    H47      H        0.65020    0.36070    0.36230    1.000
    H48      H        0.67510    0.38510    0.40060    1.000
    O46      O        0.73623    0.17585    0.45964    1.000
    O47      O        0.65947    0.21430    0.46022    1.000
    O48      O        0.93938    0.31973    0.31126    1.000
    O49      O        0.08113    0.30765    0.45959    1.000
    O50      O        0.11832    0.38547    0.45912    1.000
    C93      C        0.08670    0.35290    0.44714    1.000
    C94      C        0.05300    0.36860    0.41321    1.000
    C95      C        0.05320    0.41890    0.40010    1.000
    C96      C        0.02170    0.33280    0.39494    1.000
    H49      H        0.07530    0.44310    0.41210    1.000
    C97      C        0.02180    0.43420    0.37000    1.000
    C98      C        0.99170    0.34730    0.36350    1.000
    H50      H        0.02090    0.29840    0.40400    1.000
    C99      C        0.99200    0.39740    0.35060    1.000
    N8       N        0.02030    0.48840    0.36040    1.000
    C100     C        0.96080    0.30700    0.34297    1.000
    H51      H        0.97210    0.40700    0.32850    1.000
    O51      O        0.95742    0.26425    0.35932    1.000
    O52      O        0.79530    0.09230    0.51480    1.000
    H52      H        0.79790    0.06320    0.50390    1.000
    Cu9      Cu       0.76908    0.59977    0.78121    1.000
    O53      O        0.03633    0.75442    0.74371    1.000
    O54      O        0.78146    0.65934    0.81539    1.000
    Cu10     Cu       0.70365    0.57499    0.83657    1.000
    O55      O        0.79007    0.86525    0.74319    1.000
    C101     C        0.00690    0.78580    0.72733    1.000
    C102     C        0.75710    0.66770    0.84648    1.000
    O56      O        0.01400    0.80757    0.69501    1.000
    O57      O        0.72309    0.63907    0.86085    1.000
    C103     C        0.95920    0.80130    0.74951    1.000
    C104     C        0.76940    0.71500    0.86888    1.000
    C105     C        0.95380    0.78960    0.78844    1.000
    C106     C        0.92070    0.82840    0.72986    1.000
    C107     C        0.81300    0.74350    0.86001    1.000
    C108     C        0.73680    0.73110    0.89857    1.000
    C109     C        0.91130    0.80440    0.80927    1.000
    H53      H        0.98010    0.77090    0.80130    1.000
    H54      H        0.92500    0.83820    0.70330    1.000
    C110     C        0.87630    0.84070    0.74980    1.000
    H55      H        0.83540    0.73250    0.83980    1.000
    C111     C        0.82370    0.78800    0.88094    1.000
    C112     C        0.74580    0.77670    0.91780    1.000
    H56      H        0.70830    0.71060    0.90570    1.000
    N9       N        0.91030    0.79410    0.85102    1.000
    C113     C        0.87180    0.82820    0.78932    1.000
    C114     C        0.83380    0.86640    0.72785    1.000
    C115     C        0.78950    0.80500    0.90891    1.000
    C116     C        0.87030    0.81690    0.87459    1.000
    C117     C        0.70950    0.79580    0.94794    1.000
    H57      H        0.93360    0.77430    0.86180    1.000
    H58      H        0.84100    0.83610    0.80280    1.000
    O58      O        0.84562    0.88806    0.69647    1.000
    H59      H        0.79580    0.83630    0.92220    1.000
    H60      H        0.86070    0.84980    0.86230    1.000
    H61      H        0.88510    0.82490    0.90060    1.000
    O59      O        0.67585    0.76377    0.95964    1.000
    O60      O        0.71430    0.84053    0.96022    1.000
    O61      O        0.81973    0.56062    0.81126    1.000
    O62      O        0.80765    0.41887    0.95959    1.000
    O63      O        0.88547    0.38168    0.95912    1.000
    C118     C        0.85290    0.41330    0.94714    1.000
    C119     C        0.86860    0.44700    0.91321    1.000
    C120     C        0.91890    0.44680    0.90010    1.000
    C121     C        0.83280    0.47830    0.89494    1.000
    H62      H        0.94310    0.42470    0.91210    1.000
    C122     C        0.93420    0.47820    0.87000    1.000
    C123     C        0.84730    0.50830    0.86350    1.000
    H63      H        0.79840    0.47910    0.90400    1.000
    C124     C        0.89740    0.50800    0.85060    1.000
    N10      N        0.98840    0.47970    0.86040    1.000
    C125     C        0.80700    0.53920    0.84297    1.000
    H64      H        0.90700    0.52790    0.82850    1.000
    O64      O        0.76425    0.54258    0.85932    1.000
    O65      O        0.59230    0.70470    0.01480    1.000
    H65      H        0.56320    0.70210    0.00390    1.000
    Cu11     Cu       0.26908    0.09977    0.28121    1.000
    O66      O        0.53633    0.25442    0.24371    1.000
    O67      O        0.28146    0.15934    0.31539    1.000
    Cu12     Cu       0.20365    0.07499    0.33657    1.000
    O68      O        0.29007    0.36525    0.24319    1.000
    C126     C        0.50690    0.28580    0.22733    1.000
    C127     C        0.25710    0.16770    0.34648    1.000
    O69      O        0.51400    0.30757    0.19501    1.000
    O70      O        0.22309    0.13907    0.36085    1.000
    C128     C        0.45920    0.30130    0.24951    1.000
    C129     C        0.26940    0.21500    0.36888    1.000
    C130     C        0.45380    0.28960    0.28844    1.000
    C131     C        0.42070    0.32840    0.22986    1.000
    C132     C        0.31300    0.24350    0.36001    1.000
    C133     C        0.23680    0.23110    0.39857    1.000
    C134     C        0.41130    0.30440    0.30927    1.000
    H66      H        0.48010    0.27090    0.30130    1.000
    H67      H        0.42500    0.33820    0.20330    1.000
    C135     C        0.37630    0.34070    0.24980    1.000
    H68      H        0.33540    0.23250    0.33980    1.000
    C136     C        0.32370    0.28800    0.38094    1.000
    C137     C        0.24580    0.27670    0.41780    1.000
    H69      H        0.20830    0.21060    0.40570    1.000
    N11      N        0.41030    0.29410    0.35102    1.000
    C138     C        0.37180    0.32820    0.28932    1.000
    C139     C        0.33380    0.36640    0.22785    1.000
    C140     C        0.28950    0.30500    0.40891    1.000
    C141     C        0.37030    0.31690    0.37459    1.000
    C142     C        0.20950    0.29580    0.44794    1.000
    H70      H        0.43360    0.27430    0.36180    1.000
    H71      H        0.34100    0.33610    0.30280    1.000
    O71      O        0.34562    0.38806    0.19647    1.000
    H72      H        0.29580    0.33630    0.42220    1.000
    H73      H        0.36070    0.34980    0.36230    1.000
    H74      H        0.38510    0.32490    0.40060    1.000
    O72      O        0.17585    0.26377    0.45964    1.000
    O73      O        0.21430    0.34053    0.46022    1.000
    O74      O        0.31973    0.06062    0.31126    1.000
    O75      O        0.30765    0.91887    0.45959    1.000
    O76      O        0.38547    0.88168    0.45912    1.000
    C143     C        0.35290    0.91330    0.44714    1.000
    C144     C        0.36860    0.94700    0.41321    1.000
    C145     C        0.41890    0.94680    0.40010    1.000
    C146     C        0.33280    0.97830    0.39494    1.000
    H75      H        0.44310    0.92470    0.41210    1.000
    C147     C        0.43420    0.97820    0.37000    1.000
    C148     C        0.34730    0.00830    0.36350    1.000
    H76      H        0.29840    0.97910    0.40400    1.000
    C149     C        0.39740    0.00800    0.35060    1.000
    N12      N        0.48840    0.97970    0.36040    1.000
    C150     C        0.30700    0.03920    0.34297    1.000
    H77      H        0.40700    0.02790    0.32850    1.000
    O77      O        0.26425    0.04258    0.35932    1.000
    O78      O        0.09230    0.20470    0.51480    1.000
    H78      H        0.06320    0.20210    0.50390    1.000
    Cu13     Cu       0.23092    0.40023    0.78121    1.000
    O79      O        0.96367    0.24558    0.74371    1.000
    O80      O        0.21854    0.34066    0.81539    1.000
    Cu14     Cu       0.29635    0.42501    0.83657    1.000
    O81      O        0.20993    0.13475    0.74319    1.000
    C151     C        0.99310    0.21420    0.72733    1.000
    C152     C        0.24290    0.33230    0.84648    1.000
    O82      O        0.98600    0.19243    0.69501    1.000
    O83      O        0.27691    0.36093    0.86085    1.000
    C153     C        0.04080    0.19870    0.74951    1.000
    C154     C        0.23060    0.28500    0.86888    1.000
    C155     C        0.04620    0.21040    0.78844    1.000
    C156     C        0.07930    0.17160    0.72986    1.000
    C157     C        0.18700    0.25650    0.86001    1.000
    C158     C        0.26320    0.26890    0.89857    1.000
    C159     C        0.08870    0.19560    0.80927    1.000
    H79      H        0.01990    0.22910    0.80130    1.000
    H80      H        0.07500    0.16180    0.70330    1.000
    C160     C        0.12370    0.15930    0.74980    1.000
    H81      H        0.16460    0.26750    0.83980    1.000
    C161     C        0.17630    0.21200    0.88094    1.000
    C162     C        0.25420    0.22330    0.91780    1.000
    H82      H        0.29170    0.28940    0.90570    1.000
    N13      N        0.08970    0.20590    0.85102    1.000
    C163     C        0.12820    0.17180    0.78932    1.000
    C164     C        0.16620    0.13360    0.72785    1.000
    C165     C        0.21050    0.19500    0.90891    1.000
    C166     C        0.12970    0.18310    0.87459    1.000
    C167     C        0.29050    0.20420    0.94794    1.000
    H83      H        0.06640    0.22570    0.86180    1.000
    H84      H        0.15900    0.16390    0.80280    1.000
    O84      O        0.15438    0.11194    0.69647    1.000
    H85      H        0.20420    0.16370    0.92220    1.000
    H86      H        0.13930    0.15020    0.86230    1.000
    H87      H        0.11490    0.17510    0.90060    1.000
    O85      O        0.32415    0.23623    0.95964    1.000
    O86      O        0.28570    0.15947    0.96022    1.000
    O87      O        0.18027    0.43938    0.81126    1.000
    O88      O        0.19235    0.58113    0.95959    1.000
    O89      O        0.11453    0.61832    0.95912    1.000
    C168     C        0.14710    0.58670    0.94714    1.000
    C169     C        0.13140    0.55300    0.91321    1.000
    C170     C        0.08110    0.55320    0.90010    1.000
    C171     C        0.16720    0.52170    0.89494    1.000
    H88      H        0.05690    0.57530    0.91210    1.000
    C172     C        0.06580    0.52180    0.87000    1.000
    C173     C        0.15270    0.49170    0.86350    1.000
    H89      H        0.20160    0.52090    0.90400    1.000
    C174     C        0.10260    0.49200    0.85060    1.000
    N14      N        0.01160    0.52030    0.86040    1.000
    C175     C        0.19300    0.46080    0.84297    1.000
    H90      H        0.09300    0.47210    0.82850    1.000
    O90      O        0.23575    0.45742    0.85932    1.000
    O91      O        0.40770    0.29530    0.01480    1.000
    H91      H        0.43680    0.29790    0.00390    1.000
    Cu15     Cu       0.73092    0.90023    0.28121    1.000
    O92      O        0.46367    0.74558    0.24371    1.000
    O93      O        0.71854    0.84066    0.31539    1.000
    Cu16     Cu       0.79635    0.92501    0.33657    1.000
    O94      O        0.70993    0.63475    0.24319    1.000
    C176     C        0.49310    0.71420    0.22733    1.000
    C177     C        0.74290    0.83230    0.34648    1.000
    O95      O        0.48600    0.69243    0.19501    1.000
    O96      O        0.77691    0.86093    0.36085    1.000
    C178     C        0.54080    0.69870    0.24951    1.000
    C179     C        0.73060    0.78500    0.36888    1.000
    C180     C        0.54620    0.71040    0.28844    1.000
    C181     C        0.57930    0.67160    0.22986    1.000
    C182     C        0.68700    0.75650    0.36001    1.000
    C183     C        0.76320    0.76890    0.39857    1.000
    C184     C        0.58870    0.69560    0.30927    1.000
    H92      H        0.51990    0.72910    0.30130    1.000
    H93      H        0.57500    0.66180    0.20330    1.000
    C185     C        0.62370    0.65930    0.24980    1.000
    H94      H        0.66460    0.76750    0.33980    1.000
    C186     C        0.67630    0.71200    0.38094    1.000
    C187     C        0.75420    0.72330    0.41780    1.000
    H95      H        0.79170    0.78940    0.40570    1.000
    N15      N        0.58970    0.70590    0.35102    1.000
    C188     C        0.62820    0.67180    0.28932    1.000
    C189     C        0.66620    0.63360    0.22785    1.000
    C190     C        0.71050    0.69500    0.40891    1.000
    C191     C        0.62970    0.68310    0.37459    1.000
    C192     C        0.79050    0.70420    0.44794    1.000
    H96      H        0.56640    0.72570    0.36180    1.000
    H97      H        0.65900    0.66390    0.30280    1.000
    O97      O        0.65438    0.61194    0.19647    1.000
    H98      H        0.70420    0.66370    0.42220    1.000
    H99      H        0.63930    0.65020    0.36230    1.000
    H100     H        0.61490    0.67510    0.40060    1.000
    O98      O        0.82415    0.73623    0.45964    1.000
    O99      O        0.78570    0.65947    0.46022    1.000
    O100     O        0.68027    0.93938    0.31126    1.000
    O101     O        0.69235    0.08113    0.45959    1.000
    O102     O        0.61453    0.11832    0.45912    1.000
    C193     C        0.64710    0.08670    0.44714    1.000
    C194     C        0.63140    0.05300    0.41321    1.000
    C195     C        0.58110    0.05320    0.40010    1.000
    C196     C        0.66720    0.02170    0.39494    1.000
    H101     H        0.55690    0.07530    0.41210    1.000
    C197     C        0.56580    0.02180    0.37000    1.000
    C198     C        0.65270    0.99170    0.36350    1.000
    H102     H        0.70160    0.02090    0.40400    1.000
    C199     C        0.60260    0.99200    0.35060    1.000
    N16      N        0.51160    0.02030    0.36040    1.000
    C200     C        0.69300    0.96080    0.34297    1.000
    H103     H        0.59300    0.97210    0.32850    1.000
    O103     O        0.73575    0.95742    0.35932    1.000
    O104     O        0.90770    0.79530    0.51480    1.000
    H104     H        0.93680    0.79790    0.50390    1.000
    Cu17     Cu       0.40023    0.76908    0.21879    1.000
    O105     O        0.24558    0.03633    0.25629    1.000
    O106     O        0.34066    0.78146    0.18461    1.000
    Cu18     Cu       0.42501    0.70365    0.16343    1.000
    O107     O        0.13475    0.79007    0.25681    1.000
    C201     C        0.21420    0.00690    0.27267    1.000
    C202     C        0.33230    0.75710    0.15352    1.000
    O108     O        0.19243    0.01400    0.30499    1.000
    O109     O        0.36093    0.72309    0.13915    1.000
    C203     C        0.19870    0.95920    0.25049    1.000
    C204     C        0.28500    0.76940    0.13112    1.000
    C205     C        0.21040    0.95380    0.21156    1.000
    C206     C        0.17160    0.92070    0.27014    1.000
    C207     C        0.25650    0.81300    0.13999    1.000
    C208     C        0.26890    0.73680    0.10143    1.000
    C209     C        0.19560    0.91130    0.19073    1.000
    H105     H        0.22910    0.98010    0.19870    1.000
    H106     H        0.16180    0.92500    0.29670    1.000
    C210     C        0.15930    0.87630    0.25020    1.000
    H107     H        0.26750    0.83540    0.16020    1.000
    C211     C        0.21200    0.82370    0.11906    1.000
    C212     C        0.22330    0.74580    0.08220    1.000
    H108     H        0.28940    0.70830    0.09430    1.000
    N17      N        0.20590    0.91030    0.14898    1.000
    C213     C        0.17180    0.87180    0.21068    1.000
    C214     C        0.13360    0.83380    0.27215    1.000
    C215     C        0.19500    0.78950    0.09109    1.000
    C216     C        0.18310    0.87030    0.12541    1.000
    C217     C        0.20420    0.70950    0.05206    1.000
    H109     H        0.22570    0.93360    0.13820    1.000
    H110     H        0.16390    0.84100    0.19720    1.000
    O110     O        0.11194    0.84562    0.30353    1.000
    H111     H        0.16370    0.79580    0.07780    1.000
    H112     H        0.15020    0.86070    0.13770    1.000
    H113     H        0.17510    0.88510    0.09940    1.000
    O111     O        0.23623    0.67585    0.04036    1.000
    O112     O        0.15947    0.71430    0.03978    1.000
    O113     O        0.43938    0.81973    0.18874    1.000
    O114     O        0.58113    0.80765    0.04041    1.000
    O115     O        0.61832    0.88547    0.04088    1.000
    C218     C        0.58670    0.85290    0.05286    1.000
    C219     C        0.55300    0.86860    0.08679    1.000
    C220     C        0.55320    0.91890    0.09990    1.000
    C221     C        0.52170    0.83280    0.10506    1.000
    H114     H        0.57530    0.94310    0.08790    1.000
    C222     C        0.52180    0.93420    0.13000    1.000
    C223     C        0.49170    0.84730    0.13650    1.000
    H115     H        0.52090    0.79840    0.09600    1.000
    C224     C        0.49200    0.89740    0.14940    1.000
    N18      N        0.52030    0.98840    0.13960    1.000
    C225     C        0.46080    0.80700    0.15703    1.000
    H116     H        0.47210    0.90700    0.17150    1.000
    O116     O        0.45742    0.76425    0.14068    1.000
    O117     O        0.29530    0.59230    0.98520    1.000
    H117     H        0.29790    0.56320    0.99610    1.000
    Cu19     Cu       0.90023    0.26908    0.71879    1.000
    O118     O        0.74558    0.53633    0.75629    1.000
    O119     O        0.84066    0.28146    0.68461    1.000
    Cu20     Cu       0.92501    0.20365    0.66343    1.000
    O120     O        0.63475    0.29007    0.75681    1.000
    C226     C        0.71420    0.50690    0.77267    1.000
    C227     C        0.83230    0.25710    0.65352    1.000
    O121     O        0.69243    0.51400    0.80499    1.000
    O122     O        0.86093    0.22309    0.63915    1.000
    C228     C        0.69870    0.45920    0.75049    1.000
    C229     C        0.78500    0.26940    0.63112    1.000
    C230     C        0.71040    0.45380    0.71156    1.000
    C231     C        0.67160    0.42070    0.77014    1.000
    C232     C        0.75650    0.31300    0.63999    1.000
    C233     C        0.76890    0.23680    0.60143    1.000
    C234     C        0.69560    0.41130    0.69073    1.000
    H118     H        0.72910    0.48010    0.69870    1.000
    H119     H        0.66180    0.42500    0.79670    1.000
    C235     C        0.65930    0.37630    0.75020    1.000
    H120     H        0.76750    0.33540    0.66020    1.000
    C236     C        0.71200    0.32370    0.61906    1.000
    C237     C        0.72330    0.24580    0.58220    1.000
    H121     H        0.78940    0.20830    0.59430    1.000
    N19      N        0.70590    0.41030    0.64898    1.000
    C238     C        0.67180    0.37180    0.71068    1.000
    C239     C        0.63360    0.33380    0.77215    1.000
    C240     C        0.69500    0.28950    0.59109    1.000
    C241     C        0.68310    0.37030    0.62541    1.000
    C242     C        0.70420    0.20950    0.55206    1.000
    H122     H        0.72570    0.43360    0.63820    1.000
    H123     H        0.66390    0.34100    0.69720    1.000
    O123     O        0.61194    0.34562    0.80353    1.000
    H124     H        0.66370    0.29580    0.57780    1.000
    H125     H        0.65020    0.36070    0.63770    1.000
    H126     H        0.67510    0.38510    0.59940    1.000
    O124     O        0.73623    0.17585    0.54036    1.000
    O125     O        0.65947    0.21430    0.53978    1.000
    O126     O        0.93938    0.31973    0.68874    1.000
    O127     O        0.08113    0.30765    0.54041    1.000
    O128     O        0.11832    0.38547    0.54088    1.000
    C243     C        0.08670    0.35290    0.55286    1.000
    C244     C        0.05300    0.36860    0.58679    1.000
    C245     C        0.05320    0.41890    0.59990    1.000
    C246     C        0.02170    0.33280    0.60506    1.000
    H127     H        0.07530    0.44310    0.58790    1.000
    C247     C        0.02180    0.43420    0.63000    1.000
    C248     C        0.99170    0.34730    0.63650    1.000
    H128     H        0.02090    0.29840    0.59600    1.000
    C249     C        0.99200    0.39740    0.64940    1.000
    N20      N        0.02030    0.48840    0.63960    1.000
    C250     C        0.96080    0.30700    0.65703    1.000
    H129     H        0.97210    0.40700    0.67150    1.000
    O129     O        0.95742    0.26425    0.64068    1.000
    O130     O        0.79530    0.09230    0.48520    1.000
    H130     H        0.79790    0.06320    0.49610    1.000
    Cu21     Cu       0.59977    0.23092    0.21879    1.000
    O131     O        0.75442    0.96367    0.25629    1.000
    O132     O        0.65934    0.21854    0.18461    1.000
    Cu22     Cu       0.57499    0.29635    0.16343    1.000
    O133     O        0.86525    0.20993    0.25681    1.000
    C251     C        0.78580    0.99310    0.27267    1.000
    C252     C        0.66770    0.24290    0.15352    1.000
    O134     O        0.80757    0.98600    0.30499    1.000
    O135     O        0.63907    0.27691    0.13915    1.000
    C253     C        0.80130    0.04080    0.25049    1.000
    C254     C        0.71500    0.23060    0.13112    1.000
    C255     C        0.78960    0.04620    0.21156    1.000
    C256     C        0.82840    0.07930    0.27014    1.000
    C257     C        0.74350    0.18700    0.13999    1.000
    C258     C        0.73110    0.26320    0.10143    1.000
    C259     C        0.80440    0.08870    0.19073    1.000
    H131     H        0.77090    0.01990    0.19870    1.000
    H132     H        0.83820    0.07500    0.29670    1.000
    C260     C        0.84070    0.12370    0.25020    1.000
    H133     H        0.73250    0.16460    0.16020    1.000
    C261     C        0.78800    0.17630    0.11906    1.000
    C262     C        0.77670    0.25420    0.08220    1.000
    H134     H        0.71060    0.29170    0.09430    1.000
    N21      N        0.79410    0.08970    0.14898    1.000
    C263     C        0.82820    0.12820    0.21068    1.000
    C264     C        0.86640    0.16620    0.27215    1.000
    C265     C        0.80500    0.21050    0.09109    1.000
    C266     C        0.81690    0.12970    0.12541    1.000
    C267     C        0.79580    0.29050    0.05206    1.000
    H135     H        0.77430    0.06640    0.13820    1.000
    H136     H        0.83610    0.15900    0.19720    1.000
    O136     O        0.88806    0.15438    0.30353    1.000
    H137     H        0.83630    0.20420    0.07780    1.000
    H138     H        0.84980    0.13930    0.13770    1.000
    H139     H        0.82490    0.11490    0.09940    1.000
    O137     O        0.76377    0.32415    0.04036    1.000
    O138     O        0.84053    0.28570    0.03978    1.000
    O139     O        0.56062    0.18027    0.18874    1.000
    O140     O        0.41887    0.19235    0.04041    1.000
    O141     O        0.38168    0.11453    0.04088    1.000
    C268     C        0.41330    0.14710    0.05286    1.000
    C269     C        0.44700    0.13140    0.08679    1.000
    C270     C        0.44680    0.08110    0.09990    1.000
    C271     C        0.47830    0.16720    0.10506    1.000
    H140     H        0.42470    0.05690    0.08790    1.000
    C272     C        0.47820    0.06580    0.13000    1.000
    C273     C        0.50830    0.15270    0.13650    1.000
    H141     H        0.47910    0.20160    0.09600    1.000
    C274     C        0.50800    0.10260    0.14940    1.000
    N22      N        0.47970    0.01160    0.13960    1.000
    C275     C        0.53920    0.19300    0.15703    1.000
    H142     H        0.52790    0.09300    0.17150    1.000
    O142     O        0.54258    0.23575    0.14068    1.000
    O143     O        0.70470    0.40770    0.98520    1.000
    H143     H        0.70210    0.43680    0.99610    1.000
    Cu23     Cu       0.09977    0.73092    0.71879    1.000
    O144     O        0.25442    0.46367    0.75629    1.000
    O145     O        0.15934    0.71854    0.68461    1.000
    Cu24     Cu       0.07499    0.79635    0.66343    1.000
    O146     O        0.36525    0.70993    0.75681    1.000
    C276     C        0.28580    0.49310    0.77267    1.000
    C277     C        0.16770    0.74290    0.65352    1.000
    O147     O        0.30757    0.48600    0.80499    1.000
    O148     O        0.13907    0.77691    0.63915    1.000
    C278     C        0.30130    0.54080    0.75049    1.000
    C279     C        0.21500    0.73060    0.63112    1.000
    C280     C        0.28960    0.54620    0.71156    1.000
    C281     C        0.32840    0.57930    0.77014    1.000
    C282     C        0.24350    0.68700    0.63999    1.000
    C283     C        0.23110    0.76320    0.60143    1.000
    C284     C        0.30440    0.58870    0.69073    1.000
    H144     H        0.27090    0.51990    0.69870    1.000
    H145     H        0.33820    0.57500    0.79670    1.000
    C285     C        0.34070    0.62370    0.75020    1.000
    H146     H        0.23250    0.66460    0.66020    1.000
    C286     C        0.28800    0.67630    0.61906    1.000
    C287     C        0.27670    0.75420    0.58220    1.000
    H147     H        0.21060    0.79170    0.59430    1.000
    N23      N        0.29410    0.58970    0.64898    1.000
    C288     C        0.32820    0.62820    0.71068    1.000
    C289     C        0.36640    0.66620    0.77215    1.000
    C290     C        0.30500    0.71050    0.59109    1.000
    C291     C        0.31690    0.62970    0.62541    1.000
    C292     C        0.29580    0.79050    0.55206    1.000
    H148     H        0.27430    0.56640    0.63820    1.000
    H149     H        0.33610    0.65900    0.69720    1.000
    O149     O        0.38806    0.65438    0.80353    1.000
    H150     H        0.33630    0.70420    0.57780    1.000
    H151     H        0.34980    0.63930    0.63770    1.000
    H152     H        0.32490    0.61490    0.59940    1.000
    O150     O        0.26377    0.82415    0.54036    1.000
    O151     O        0.34053    0.78570    0.53978    1.000
    O152     O        0.06062    0.68027    0.68874    1.000
    O153     O        0.91887    0.69235    0.54041    1.000
    O154     O        0.88168    0.61453    0.54088    1.000
    C293     C        0.91330    0.64710    0.55286    1.000
    C294     C        0.94700    0.63140    0.58679    1.000
    C295     C        0.94680    0.58110    0.59990    1.000
    C296     C        0.97830    0.66720    0.60506    1.000
    H153     H        0.92470    0.55690    0.58790    1.000
    C297     C        0.97820    0.56580    0.63000    1.000
    C298     C        0.00830    0.65270    0.63650    1.000
    H154     H        0.97910    0.70160    0.59600    1.000
    C299     C        0.00800    0.60260    0.64940    1.000
    N24      N        0.97970    0.51160    0.63960    1.000
    C300     C        0.03920    0.69300    0.65703    1.000
    H155     H        0.02790    0.59300    0.67150    1.000
    O155     O        0.04258    0.73575    0.64068    1.000
    O156     O        0.20470    0.90770    0.48520    1.000
    H156     H        0.20210    0.93680    0.49610    1.000
    Cu25     Cu       0.23092    0.40023    0.21879    1.000
    O157     O        0.96367    0.24558    0.25629    1.000
    O158     O        0.21854    0.34066    0.18461    1.000
    Cu26     Cu       0.29635    0.42501    0.16343    1.000
    O159     O        0.20993    0.13475    0.25681    1.000
    C301     C        0.99310    0.21420    0.27267    1.000
    C302     C        0.24290    0.33230    0.15352    1.000
    O160     O        0.98600    0.19243    0.30499    1.000
    O161     O        0.27691    0.36093    0.13915    1.000
    C303     C        0.04080    0.19870    0.25049    1.000
    C304     C        0.23060    0.28500    0.13112    1.000
    C305     C        0.04620    0.21040    0.21156    1.000
    C306     C        0.07930    0.17160    0.27014    1.000
    C307     C        0.18700    0.25650    0.13999    1.000
    C308     C        0.26320    0.26890    0.10143    1.000
    C309     C        0.08870    0.19560    0.19073    1.000
    H157     H        0.01990    0.22910    0.19870    1.000
    H158     H        0.07500    0.16180    0.29670    1.000
    C310     C        0.12370    0.15930    0.25020    1.000
    H159     H        0.16460    0.26750    0.16020    1.000
    C311     C        0.17630    0.21200    0.11906    1.000
    C312     C        0.25420    0.22330    0.08220    1.000
    H160     H        0.29170    0.28940    0.09430    1.000
    N25      N        0.08970    0.20590    0.14898    1.000
    C313     C        0.12820    0.17180    0.21068    1.000
    C314     C        0.16620    0.13360    0.27215    1.000
    C315     C        0.21050    0.19500    0.09109    1.000
    C316     C        0.12970    0.18310    0.12541    1.000
    C317     C        0.29050    0.20420    0.05206    1.000
    H161     H        0.06640    0.22570    0.13820    1.000
    H162     H        0.15900    0.16390    0.19720    1.000
    O162     O        0.15438    0.11194    0.30353    1.000
    H163     H        0.20420    0.16370    0.07780    1.000
    H164     H        0.13930    0.15020    0.13770    1.000
    H165     H        0.11490    0.17510    0.09940    1.000
    O163     O        0.32415    0.23623    0.04036    1.000
    O164     O        0.28570    0.15947    0.03978    1.000
    O165     O        0.18027    0.43938    0.18874    1.000
    O166     O        0.19235    0.58113    0.04041    1.000
    O167     O        0.11453    0.61832    0.04088    1.000
    C318     C        0.14710    0.58670    0.05286    1.000
    C319     C        0.13140    0.55300    0.08679    1.000
    C320     C        0.08110    0.55320    0.09990    1.000
    C321     C        0.16720    0.52170    0.10506    1.000
    H166     H        0.05690    0.57530    0.08790    1.000
    C322     C        0.06580    0.52180    0.13000    1.000
    C323     C        0.15270    0.49170    0.13650    1.000
    H167     H        0.20160    0.52090    0.09600    1.000
    C324     C        0.10260    0.49200    0.14940    1.000
    N26      N        0.01160    0.52030    0.13960    1.000
    C325     C        0.19300    0.46080    0.15703    1.000
    H168     H        0.09300    0.47210    0.17150    1.000
    O168     O        0.23575    0.45742    0.14068    1.000
    O169     O        0.40770    0.29530    0.98520    1.000
    H169     H        0.43680    0.29790    0.99610    1.000
    Cu27     Cu       0.73092    0.90023    0.71879    1.000
    O170     O        0.46367    0.74558    0.75629    1.000
    O171     O        0.71854    0.84066    0.68461    1.000
    Cu28     Cu       0.79635    0.92501    0.66343    1.000
    O172     O        0.70993    0.63475    0.75681    1.000
    C326     C        0.49310    0.71420    0.77267    1.000
    C327     C        0.74290    0.83230    0.65352    1.000
    O173     O        0.48600    0.69243    0.80499    1.000
    O174     O        0.77691    0.86093    0.63915    1.000
    C328     C        0.54080    0.69870    0.75049    1.000
    C329     C        0.73060    0.78500    0.63112    1.000
    C330     C        0.54620    0.71040    0.71156    1.000
    C331     C        0.57930    0.67160    0.77014    1.000
    C332     C        0.68700    0.75650    0.63999    1.000
    C333     C        0.76320    0.76890    0.60143    1.000
    C334     C        0.58870    0.69560    0.69073    1.000
    H170     H        0.51990    0.72910    0.69870    1.000
    H171     H        0.57500    0.66180    0.79670    1.000
    C335     C        0.62370    0.65930    0.75020    1.000
    H172     H        0.66460    0.76750    0.66020    1.000
    C336     C        0.67630    0.71200    0.61906    1.000
    C337     C        0.75420    0.72330    0.58220    1.000
    H173     H        0.79170    0.78940    0.59430    1.000
    N27      N        0.58970    0.70590    0.64898    1.000
    C338     C        0.62820    0.67180    0.71068    1.000
    C339     C        0.66620    0.63360    0.77215    1.000
    C340     C        0.71050    0.69500    0.59109    1.000
    C341     C        0.62970    0.68310    0.62541    1.000
    C342     C        0.79050    0.70420    0.55206    1.000
    H174     H        0.56640    0.72570    0.63820    1.000
    H175     H        0.65900    0.66390    0.69720    1.000
    O175     O        0.65438    0.61194    0.80353    1.000
    H176     H        0.70420    0.66370    0.57780    1.000
    H177     H        0.63930    0.65020    0.63770    1.000
    H178     H        0.61490    0.67510    0.59940    1.000
    O176     O        0.82415    0.73623    0.54036    1.000
    O177     O        0.78570    0.65947    0.53978    1.000
    O178     O        0.68027    0.93938    0.68874    1.000
    O179     O        0.69235    0.08113    0.54041    1.000
    O180     O        0.61453    0.11832    0.54088    1.000
    C343     C        0.64710    0.08670    0.55286    1.000
    C344     C        0.63140    0.05300    0.58679    1.000
    C345     C        0.58110    0.05320    0.59990    1.000
    C346     C        0.66720    0.02170    0.60506    1.000
    H179     H        0.55690    0.07530    0.58790    1.000
    C347     C        0.56580    0.02180    0.63000    1.000
    C348     C        0.65270    0.99170    0.63650    1.000
    H180     H        0.70160    0.02090    0.59600    1.000
    C349     C        0.60260    0.99200    0.64940    1.000
    N28      N        0.51160    0.02030    0.63960    1.000
    C350     C        0.69300    0.96080    0.65703    1.000
    H181     H        0.59300    0.97210    0.67150    1.000
    O181     O        0.73575    0.95742    0.64068    1.000
    O182     O        0.90770    0.79530    0.48520    1.000
    H182     H        0.93680    0.79790    0.49610    1.000
    Cu29     Cu       0.76908    0.59977    0.21879    1.000
    O183     O        0.03633    0.75442    0.25629    1.000
    O184     O        0.78146    0.65934    0.18461    1.000
    Cu30     Cu       0.70365    0.57499    0.16343    1.000
    O185     O        0.79007    0.86525    0.25681    1.000
    C351     C        0.00690    0.78580    0.27267    1.000
    C352     C        0.75710    0.66770    0.15352    1.000
    O186     O        0.01400    0.80757    0.30499    1.000
    O187     O        0.72309    0.63907    0.13915    1.000
    C353     C        0.95920    0.80130    0.25049    1.000
    C354     C        0.76940    0.71500    0.13112    1.000
    C355     C        0.95380    0.78960    0.21156    1.000
    C356     C        0.92070    0.82840    0.27014    1.000
    C357     C        0.81300    0.74350    0.13999    1.000
    C358     C        0.73680    0.73110    0.10143    1.000
    C359     C        0.91130    0.80440    0.19073    1.000
    H183     H        0.98010    0.77090    0.19870    1.000
    H184     H        0.92500    0.83820    0.29670    1.000
    C360     C        0.87630    0.84070    0.25020    1.000
    H185     H        0.83540    0.73250    0.16020    1.000
    C361     C        0.82370    0.78800    0.11906    1.000
    C362     C        0.74580    0.77670    0.08220    1.000
    H186     H        0.70830    0.71060    0.09430    1.000
    N29      N        0.91030    0.79410    0.14898    1.000
    C363     C        0.87180    0.82820    0.21068    1.000
    C364     C        0.83380    0.86640    0.27215    1.000
    C365     C        0.78950    0.80500    0.09109    1.000
    C366     C        0.87030    0.81690    0.12541    1.000
    C367     C        0.70950    0.79580    0.05206    1.000
    H187     H        0.93360    0.77430    0.13820    1.000
    H188     H        0.84100    0.83610    0.19720    1.000
    O188     O        0.84562    0.88806    0.30353    1.000
    H189     H        0.79580    0.83630    0.07780    1.000
    H190     H        0.86070    0.84980    0.13770    1.000
    H191     H        0.88510    0.82490    0.09940    1.000
    O189     O        0.67585    0.76377    0.04036    1.000
    O190     O        0.71430    0.84053    0.03978    1.000
    O191     O        0.81973    0.56062    0.18874    1.000
    O192     O        0.80765    0.41887    0.04041    1.000
    O193     O        0.88547    0.38168    0.04088    1.000
    C368     C        0.85290    0.41330    0.05286    1.000
    C369     C        0.86860    0.44700    0.08679    1.000
    C370     C        0.91890    0.44680    0.09990    1.000
    C371     C        0.83280    0.47830    0.10506    1.000
    H192     H        0.94310    0.42470    0.08790    1.000
    C372     C        0.93420    0.47820    0.13000    1.000
    C373     C        0.84730    0.50830    0.13650    1.000
    H193     H        0.79840    0.47910    0.09600    1.000
    C374     C        0.89740    0.50800    0.14940    1.000
    N30      N        0.98840    0.47970    0.13960    1.000
    C375     C        0.80700    0.53920    0.15703    1.000
    H194     H        0.90700    0.52790    0.17150    1.000
    O194     O        0.76425    0.54258    0.14068    1.000
    O195     O        0.59230    0.70470    0.98520    1.000
    H195     H        0.56320    0.70210    0.99610    1.000
    Cu31     Cu       0.26908    0.09977    0.71879    1.000
    O196     O        0.53633    0.25442    0.75629    1.000
    O197     O        0.28146    0.15934    0.68461    1.000
    Cu32     Cu       0.20365    0.07499    0.66343    1.000
    O198     O        0.29007    0.36525    0.75681    1.000
    C376     C        0.50690    0.28580    0.77267    1.000
    C377     C        0.25710    0.16770    0.65352    1.000
    O199     O        0.51400    0.30757    0.80499    1.000
    O200     O        0.22309    0.13907    0.63915    1.000
    C378     C        0.45920    0.30130    0.75049    1.000
    C379     C        0.26940    0.21500    0.63112    1.000
    C380     C        0.45380    0.28960    0.71156    1.000
    C381     C        0.42070    0.32840    0.77014    1.000
    C382     C        0.31300    0.24350    0.63999    1.000
    C383     C        0.23680    0.23110    0.60143    1.000
    C384     C        0.41130    0.30440    0.69073    1.000
    H196     H        0.48010    0.27090    0.69870    1.000
    H197     H        0.42500    0.33820    0.79670    1.000
    C385     C        0.37630    0.34070    0.75020    1.000
    H198     H        0.33540    0.23250    0.66020    1.000
    C386     C        0.32370    0.28800    0.61906    1.000
    C387     C        0.24580    0.27670    0.58220    1.000
    H199     H        0.20830    0.21060    0.59430    1.000
    N31      N        0.41030    0.29410    0.64898    1.000
    C388     C        0.37180    0.32820    0.71068    1.000
    C389     C        0.33380    0.36640    0.77215    1.000
    C390     C        0.28950    0.30500    0.59109    1.000
    C391     C        0.37030    0.31690    0.62541    1.000
    C392     C        0.20950    0.29580    0.55206    1.000
    H200     H        0.43360    0.27430    0.63820    1.000
    H201     H        0.34100    0.33610    0.69720    1.000
    O201     O        0.34562    0.38806    0.80353    1.000
    H202     H        0.29580    0.33630    0.57780    1.000
    H203     H        0.36070    0.34980    0.63770    1.000
    H204     H        0.38510    0.32490    0.59940    1.000
    O202     O        0.17585    0.26377    0.54036    1.000
    O203     O        0.21430    0.34053    0.53978    1.000
    O204     O        0.31973    0.06062    0.68874    1.000
    O205     O        0.30765    0.91887    0.54041    1.000
    O206     O        0.38547    0.88168    0.54088    1.000
    C393     C        0.35290    0.91330    0.55286    1.000
    C394     C        0.36860    0.94700    0.58679    1.000
    C395     C        0.41890    0.94680    0.59990    1.000
    C396     C        0.33280    0.97830    0.60506    1.000
    H205     H        0.44310    0.92470    0.58790    1.000
    C397     C        0.43420    0.97820    0.63000    1.000
    C398     C        0.34730    0.00830    0.63650    1.000
    H206     H        0.29840    0.97910    0.59600    1.000
    C399     C        0.39740    0.00800    0.64940    1.000
    N32      N        0.48840    0.97970    0.63960    1.000
    C400     C        0.30700    0.03920    0.65703    1.000
    H207     H        0.40700    0.02790    0.67150    1.000
    O207     O        0.26425    0.04258    0.64068    1.000
    O208     O        0.09230    0.20470    0.48520    1.000
    H208     H        0.06320    0.20210    0.49610    1.000
    Cu33     Cu       0.77905    0.37512    0.00000    1.000
    Cu34     Cu       0.87014    0.33081    0.00000    1.000
    H209     H        0.68590    0.38880    0.00000    1.000
    Cu35     Cu       0.27905    0.87512    0.50000    1.000
    Cu36     Cu       0.37014    0.83081    0.50000    1.000
    H210     H        0.18590    0.88880    0.50000    1.000
    Cu37     Cu       0.22095    0.62488    0.00000    1.000
    Cu38     Cu       0.12986    0.66919    0.00000    1.000
    H211     H        0.31410    0.61120    0.00000    1.000
    Cu39     Cu       0.72095    0.12488    0.50000    1.000
    Cu40     Cu       0.62986    0.16919    0.50000    1.000
    H212     H        0.81410    0.11120    0.50000    1.000
    Cu41     Cu       0.62488    0.77905    0.00000    1.000
    Cu42     Cu       0.66919    0.87014    0.00000    1.000
    H213     H        0.61120    0.68590    0.00000    1.000
    Cu43     Cu       0.12488    0.27905    0.50000    1.000
    Cu44     Cu       0.16919    0.37014    0.50000    1.000
    H214     H        0.11120    0.18590    0.50000    1.000
    Cu45     Cu       0.37512    0.22095    0.00000    1.000
    Cu46     Cu       0.33081    0.12986    0.00000    1.000
    H215     H        0.38880    0.31410    0.00000    1.000
    Cu47     Cu       0.87512    0.72095    0.50000    1.000
    Cu48     Cu       0.83081    0.62986    0.50000    1.000
    H216     H        0.88880    0.81410    0.50000    1.000
