# CIF file generated by openbabel 3.1.0, see https://openbabel.org
data_I
_chemical_name_common 'image0'
_cell_length_a 8.7368
_cell_length_b 33.9968
_cell_length_c 8.6704
_cell_angle_alpha 90
_cell_angle_beta 107.726
_cell_angle_gamma 90
_space_group_name_H-M_alt 'P 1'
_space_group_name_Hall 'P 1'
loop_
    _symmetry_equiv_pos_as_xyz
    x,y,z
loop_
    _atom_site_label
    _atom_site_type_symbol
    _atom_site_fract_x
    _atom_site_fract_y
    _atom_site_fract_z
    _atom_site_occupancy
    Cu1      Cu       0.75034    0.20355    0.48460    1.000
    Cu2      Cu       0.73960    0.04570    0.49914    1.000
    O1       O        0.89453    0.15421    0.61347    1.000
    O2       O        0.85236    0.09016    0.62857    1.000
    O3       O        0.62200    0.15997    0.36232    1.000
    O4       O        0.61329    0.09485    0.34359    1.000
    O5       O        0.62424    0.20659    0.64701    1.000
    O6       O        0.59307    0.24884    0.83029    1.000
    O7       O        0.87669    0.24607    0.62079    1.000
    O8       O        0.86265    0.28762    0.81439    1.000
    O9       O        0.90765    0.04052    0.38290    1.000
    O10      O        0.08979    0.99918    0.34568    1.000
    O11      O        0.57113    0.04173    0.61568    1.000
    O12      O        0.37984    0.99940    0.62775    1.000
    C1       C        0.81950    0.12347    0.56430    1.000
    C2       C        0.67100    0.12596    0.40920    1.000
    C3       C        0.81440    0.25884    0.72410    1.000
    C4       C        0.66380    0.23657    0.73750    1.000
    C5       C        0.00070    0.01112    0.42150    1.000
    C6       C        0.48570    0.01191    0.57020    1.000
    Cu3      Cu       0.24966    0.70355    0.01540    1.000
    Cu4      Cu       0.26040    0.54570    0.00086    1.000
    O13      O        0.10547    0.65421    0.88653    1.000
    O14      O        0.14764    0.59016    0.87143    1.000
    O15      O        0.37800    0.65997    0.13768    1.000
    O16      O        0.38671    0.59485    0.15641    1.000
    O17      O        0.37576    0.70659    0.85299    1.000
    O18      O        0.40693    0.74884    0.66971    1.000
    O19      O        0.12331    0.74607    0.87921    1.000
    O20      O        0.13735    0.78762    0.68561    1.000
    O21      O        0.09235    0.54052    0.11710    1.000
    O22      O        0.91021    0.49918    0.15432    1.000
    O23      O        0.42887    0.54173    0.88432    1.000
    O24      O        0.62016    0.49940    0.87225    1.000
    C7       C        0.18050    0.62347    0.93570    1.000
    C8       C        0.32900    0.62596    0.09080    1.000
    C9       C        0.18560    0.75884    0.77590    1.000
    C10      C        0.33620    0.73657    0.76250    1.000
    C11      C        0.99930    0.51112    0.07850    1.000
    C12      C        0.51430    0.51191    0.92980    1.000
    Cu5      Cu       0.24966    0.79645    0.51540    1.000
    Cu6      Cu       0.26040    0.95430    0.50086    1.000
    O25      O        0.10547    0.84579    0.38653    1.000
    O26      O        0.14764    0.90984    0.37143    1.000
    O27      O        0.37800    0.84003    0.63768    1.000
    O28      O        0.38671    0.90515    0.65641    1.000
    O29      O        0.37576    0.79341    0.35299    1.000
    O30      O        0.40693    0.75116    0.16971    1.000
    O31      O        0.12331    0.75393    0.37921    1.000
    O32      O        0.13735    0.71238    0.18561    1.000
    O33      O        0.09235    0.95948    0.61710    1.000
    O34      O        0.91021    0.00082    0.65432    1.000
    O35      O        0.42887    0.95827    0.38432    1.000
    O36      O        0.62016    0.00060    0.37225    1.000
    C13      C        0.18050    0.87653    0.43570    1.000
    C14      C        0.32900    0.87404    0.59080    1.000
    C15      C        0.18560    0.74116    0.27590    1.000
    C16      C        0.33620    0.76343    0.26250    1.000
    C17      C        0.99930    0.98888    0.57850    1.000
    C18      C        0.51430    0.98809    0.42980    1.000
    Cu7      Cu       0.75034    0.29645    0.98460    1.000
    Cu8      Cu       0.73960    0.45430    0.99914    1.000
    O37      O        0.89453    0.34579    0.11347    1.000
    O38      O        0.85236    0.40984    0.12857    1.000
    O39      O        0.62200    0.34003    0.86232    1.000
    O40      O        0.61329    0.40515    0.84359    1.000
    O41      O        0.62424    0.29341    0.14701    1.000
    O42      O        0.59307    0.25116    0.33029    1.000
    O43      O        0.87669    0.25393    0.12079    1.000
    O44      O        0.86265    0.21238    0.31439    1.000
    O45      O        0.90765    0.45948    0.88290    1.000
    O46      O        0.08979    0.50082    0.84568    1.000
    O47      O        0.57113    0.45827    0.11568    1.000
    O48      O        0.37984    0.50060    0.12775    1.000
    C19      C        0.81950    0.37653    0.06430    1.000
    C20      C        0.67100    0.37404    0.90920    1.000
    C21      C        0.81440    0.24116    0.22410    1.000
    C22      C        0.66380    0.26343    0.23750    1.000
    C23      C        0.00070    0.48888    0.92150    1.000
    C24      C        0.48570    0.48809    0.07020    1.000
