# CIF file generated by openbabel 3.1.0, see https://openbabel.org
data_I
_chemical_name_common 'image0'
_cell_length_a 17.8736
_cell_length_b 17.8736
_cell_length_c 17.8736
_cell_angle_alpha 90
_cell_angle_beta 90
_cell_angle_gamma 90
_space_group_name_H-M_alt 'P 1'
_space_group_name_Hall 'P 1'
loop_
    _symmetry_equiv_pos_as_xyz
    x,y,z
loop_
    _atom_site_label
    _atom_site_type_symbol
    _atom_site_fract_x
    _atom_site_fract_y
    _atom_site_fract_z
    _atom_site_occupancy
    Zr1      Zr       0.36080    0.51120    0.00880    1.000
    O1       O        0.30950    0.62440    0.02970    1.000
    O2       O        0.29190    0.40610    0.00720    1.000
    C1       C        0.33680    0.68420    0.02250    1.000
    C2       C        0.30650    0.34230    0.00130    1.000
    C3       C        0.24280    0.28690    0.00270    1.000
    H1       H        0.19020    0.30430    0.99800    1.000
    O3       O        0.40710    0.70560    0.02090    1.000
    O4       O        0.37290    0.31400    0.99630    1.000
    C4       C        0.28840    0.75410    0.02640    1.000
    H2       H        0.31600    0.79480    0.02410    1.000
    O5       O        0.43620    0.57710    0.09040    1.000
    H3       H        0.41110    0.60840    0.12390    1.000
    O6       O        0.44990    0.55610    0.06620    1.000
    Zr2      Zr       0.13920    0.98880    0.00880    1.000
    O7       O        0.19050    0.87560    0.02970    1.000
    O8       O        0.20810    0.09390    0.00720    1.000
    C5       C        0.16320    0.81580    0.02250    1.000
    C6       C        0.19350    0.15770    0.00130    1.000
    C7       C        0.25720    0.21310    0.00270    1.000
    H4       H        0.30980    0.19570    0.99800    1.000
    O9       O        0.09290    0.79440    0.02090    1.000
    O10      O        0.12710    0.18600    0.99630    1.000
    C8       C        0.21160    0.74590    0.02640    1.000
    H5       H        0.18400    0.70520    0.02410    1.000
    O11      O        0.06380    0.92290    0.09040    1.000
    H6       H        0.08890    0.89160    0.12390    1.000
    O12      O        0.05010    0.94390    0.06620    1.000
    Zr3      Zr       0.13920    0.51120    0.49120    1.000
    O13      O        0.19050    0.62440    0.47030    1.000
    O14      O        0.20810    0.40610    0.49280    1.000
    C9       C        0.16320    0.68420    0.47750    1.000
    C10      C        0.19350    0.34230    0.49870    1.000
    C11      C        0.25720    0.28690    0.49730    1.000
    H7       H        0.30980    0.30430    0.50200    1.000
    O15      O        0.09290    0.70560    0.47910    1.000
    O16      O        0.12710    0.31400    0.50370    1.000
    C12      C        0.21160    0.75410    0.47360    1.000
    H8       H        0.18400    0.79480    0.47590    1.000
    O17      O        0.06380    0.57710    0.40960    1.000
    H9       H        0.08890    0.60840    0.37610    1.000
    O18      O        0.05010    0.55610    0.43380    1.000
    Zr4      Zr       0.36080    0.98880    0.49120    1.000
    O19      O        0.30950    0.87560    0.47030    1.000
    O20      O        0.29190    0.09390    0.49280    1.000
    C13      C        0.33680    0.81580    0.47750    1.000
    C14      C        0.30650    0.15770    0.49870    1.000
    C15      C        0.24280    0.21310    0.49730    1.000
    H10      H        0.19020    0.19570    0.50200    1.000
    O21      O        0.40710    0.79440    0.47910    1.000
    O22      O        0.37290    0.18600    0.50370    1.000
    C16      C        0.28840    0.74590    0.47360    1.000
    H11      H        0.31600    0.70520    0.47590    1.000
    O23      O        0.43620    0.92290    0.40960    1.000
    H12      H        0.41110    0.89160    0.37610    1.000
    O24      O        0.44990    0.94390    0.43380    1.000
    Zr5      Zr       0.00880    0.36080    0.51120    1.000
    O25      O        0.02970    0.30950    0.62440    1.000
    O26      O        0.00720    0.29190    0.40610    1.000
    C17      C        0.02250    0.33680    0.68420    1.000
    C18      C        0.00130    0.30650    0.34230    1.000
    C19      C        0.00270    0.24280    0.28690    1.000
    H13      H        0.99800    0.19020    0.30430    1.000
    O27      O        0.02090    0.40710    0.70560    1.000
    O28      O        0.99630    0.37290    0.31400    1.000
    C20      C        0.02640    0.28840    0.75410    1.000
    H14      H        0.02410    0.31600    0.79480    1.000
    O29      O        0.09040    0.43620    0.57710    1.000
    H15      H        0.12390    0.41110    0.60840    1.000
    O30      O        0.06620    0.44990    0.55610    1.000
    Zr6      Zr       0.00880    0.13920    0.98880    1.000
    O31      O        0.02970    0.19050    0.87560    1.000
    O32      O        0.00720    0.20810    0.09390    1.000
    C21      C        0.02250    0.16320    0.81580    1.000
    C22      C        0.00130    0.19350    0.15770    1.000
    C23      C        0.00270    0.25720    0.21310    1.000
    H16      H        0.99800    0.30980    0.19570    1.000
    O33      O        0.02090    0.09290    0.79440    1.000
    O34      O        0.99630    0.12710    0.18600    1.000
    C24      C        0.02640    0.21160    0.74590    1.000
    H17      H        0.02410    0.18400    0.70520    1.000
    O35      O        0.09040    0.06380    0.92290    1.000
    H18      H        0.12390    0.08890    0.89160    1.000
    O36      O        0.06620    0.05010    0.94390    1.000
    Zr7      Zr       0.49120    0.13920    0.51120    1.000
    O37      O        0.47030    0.19050    0.62440    1.000
    O38      O        0.49280    0.20810    0.40610    1.000
    C25      C        0.47750    0.16320    0.68420    1.000
    C26      C        0.49870    0.19350    0.34230    1.000
    C27      C        0.49730    0.25720    0.28690    1.000
    H19      H        0.50200    0.30980    0.30430    1.000
    O39      O        0.47910    0.09290    0.70560    1.000
    O40      O        0.50370    0.12710    0.31400    1.000
    C28      C        0.47360    0.21160    0.75410    1.000
    H20      H        0.47590    0.18400    0.79480    1.000
    O41      O        0.40960    0.06380    0.57710    1.000
    H21      H        0.37610    0.08890    0.60840    1.000
    O42      O        0.43380    0.05010    0.55610    1.000
    Zr8      Zr       0.49120    0.36080    0.98880    1.000
    O43      O        0.47030    0.30950    0.87560    1.000
    O44      O        0.49280    0.29190    0.09390    1.000
    C29      C        0.47750    0.33680    0.81580    1.000
    C30      C        0.49870    0.30650    0.15770    1.000
    C31      C        0.49730    0.24280    0.21310    1.000
    H22      H        0.50200    0.19020    0.19570    1.000
    O45      O        0.47910    0.40710    0.79440    1.000
    O46      O        0.50370    0.37290    0.18600    1.000
    C32      C        0.47360    0.28840    0.74590    1.000
    H23      H        0.47590    0.31600    0.70520    1.000
    O47      O        0.40960    0.43620    0.92290    1.000
    H24      H        0.37610    0.41110    0.89160    1.000
    O48      O        0.43380    0.44990    0.94390    1.000
    Zr9      Zr       0.51120    0.00880    0.36080    1.000
    O49      O        0.62440    0.02970    0.30950    1.000
    O50      O        0.40610    0.00720    0.29190    1.000
    C33      C        0.68420    0.02250    0.33680    1.000
    C34      C        0.34230    0.00130    0.30650    1.000
    C35      C        0.28690    0.00270    0.24280    1.000
    H25      H        0.30430    0.99800    0.19020    1.000
    O51      O        0.70560    0.02090    0.40710    1.000
    O52      O        0.31400    0.99630    0.37290    1.000
    C36      C        0.75410    0.02640    0.28840    1.000
    H26      H        0.79480    0.02410    0.31600    1.000
    O53      O        0.57710    0.09040    0.43620    1.000
    H27      H        0.60840    0.12390    0.41110    1.000
    O54      O        0.55610    0.06620    0.44990    1.000
    Zr10     Zr       0.98880    0.00880    0.13920    1.000
    O55      O        0.87560    0.02970    0.19050    1.000
    O56      O        0.09390    0.00720    0.20810    1.000
    C37      C        0.81580    0.02250    0.16320    1.000
    C38      C        0.15770    0.00130    0.19350    1.000
    C39      C        0.21310    0.00270    0.25720    1.000
    H28      H        0.19570    0.99800    0.30980    1.000
    O57      O        0.79440    0.02090    0.09290    1.000
    O58      O        0.18600    0.99630    0.12710    1.000
    C40      C        0.74590    0.02640    0.21160    1.000
    H29      H        0.70520    0.02410    0.18400    1.000
    O59      O        0.92290    0.09040    0.06380    1.000
    H30      H        0.89160    0.12390    0.08890    1.000
    O60      O        0.94390    0.06620    0.05010    1.000
    Zr11     Zr       0.51120    0.49120    0.13920    1.000
    O61      O        0.62440    0.47030    0.19050    1.000
    O62      O        0.40610    0.49280    0.20810    1.000
    C41      C        0.68420    0.47750    0.16320    1.000
    C42      C        0.34230    0.49870    0.19350    1.000
    C43      C        0.28690    0.49730    0.25720    1.000
    H31      H        0.30430    0.50200    0.30980    1.000
    O63      O        0.70560    0.47910    0.09290    1.000
    O64      O        0.31400    0.50370    0.12710    1.000
    C44      C        0.75410    0.47360    0.21160    1.000
    H32      H        0.79480    0.47590    0.18400    1.000
    O65      O        0.57710    0.40960    0.06380    1.000
    H33      H        0.60840    0.37610    0.08890    1.000
    O66      O        0.55610    0.43380    0.05010    1.000
    Zr12     Zr       0.98880    0.49120    0.36080    1.000
    O67      O        0.87560    0.47030    0.30950    1.000
    O68      O        0.09390    0.49280    0.29190    1.000
    C45      C        0.81580    0.47750    0.33680    1.000
    C46      C        0.15770    0.49870    0.30650    1.000
    C47      C        0.21310    0.49730    0.24280    1.000
    H34      H        0.19570    0.50200    0.19020    1.000
    O69      O        0.79440    0.47910    0.40710    1.000
    O70      O        0.18600    0.50370    0.37290    1.000
    C48      C        0.74590    0.47360    0.28840    1.000
    H35      H        0.70520    0.47590    0.31600    1.000
    O71      O        0.92290    0.40960    0.43620    1.000
    H36      H        0.89160    0.37610    0.41110    1.000
    O72      O        0.94390    0.43380    0.44990    1.000
    Zr13     Zr       0.63920    0.48880    0.99120    1.000
    O73      O        0.69050    0.37560    0.97030    1.000
    O74      O        0.70810    0.59390    0.99280    1.000
    C49      C        0.66320    0.31580    0.97750    1.000
    C50      C        0.69350    0.65770    0.99870    1.000
    C51      C        0.75720    0.71310    0.99730    1.000
    H37      H        0.80980    0.69570    0.00200    1.000
    O75      O        0.59290    0.29440    0.97910    1.000
    O76      O        0.62710    0.68600    0.00370    1.000
    C52      C        0.71160    0.24590    0.97360    1.000
    H38      H        0.68400    0.20520    0.97590    1.000
    O77      O        0.56380    0.42290    0.90960    1.000
    H39      H        0.58890    0.39160    0.87610    1.000
    O78      O        0.55010    0.44390    0.93380    1.000
    Zr14     Zr       0.86080    0.01120    0.99120    1.000
    O79      O        0.80950    0.12440    0.97030    1.000
    O80      O        0.79190    0.90610    0.99280    1.000
    C53      C        0.83680    0.18420    0.97750    1.000
    C54      C        0.80650    0.84230    0.99870    1.000
    C55      C        0.74280    0.78690    0.99730    1.000
    H40      H        0.69020    0.80430    0.00200    1.000
    O81      O        0.90710    0.20560    0.97910    1.000
    O82      O        0.87290    0.81400    0.00370    1.000
    C56      C        0.78840    0.25410    0.97360    1.000
    H41      H        0.81600    0.29480    0.97590    1.000
    O83      O        0.93620    0.07710    0.90960    1.000
    H42      H        0.91110    0.10840    0.87610    1.000
    O84      O        0.94990    0.05610    0.93380    1.000
    Zr15     Zr       0.86080    0.48880    0.50880    1.000
    O85      O        0.80950    0.37560    0.52970    1.000
    O86      O        0.79190    0.59390    0.50720    1.000
    C57      C        0.83680    0.31580    0.52250    1.000
    C58      C        0.80650    0.65770    0.50130    1.000
    C59      C        0.74280    0.71310    0.50270    1.000
    H43      H        0.69020    0.69570    0.49800    1.000
    O87      O        0.90710    0.29440    0.52090    1.000
    O88      O        0.87290    0.68600    0.49630    1.000
    C60      C        0.78840    0.24590    0.52640    1.000
    H44      H        0.81600    0.20520    0.52410    1.000
    O89      O        0.93620    0.42290    0.59040    1.000
    H45      H        0.91110    0.39160    0.62390    1.000
    O90      O        0.94990    0.44390    0.56620    1.000
    Zr16     Zr       0.63920    0.01120    0.50880    1.000
    O91      O        0.69050    0.12440    0.52970    1.000
    O92      O        0.70810    0.90610    0.50720    1.000
    C61      C        0.66320    0.18420    0.52250    1.000
    C62      C        0.69350    0.84230    0.50130    1.000
    C63      C        0.75720    0.78690    0.50270    1.000
    H46      H        0.80980    0.80430    0.49800    1.000
    O93      O        0.59290    0.20560    0.52090    1.000
    O94      O        0.62710    0.81400    0.49630    1.000
    C64      C        0.71160    0.25410    0.52640    1.000
    H47      H        0.68400    0.29480    0.52410    1.000
    O95      O        0.56380    0.07710    0.59040    1.000
    H48      H        0.58890    0.10840    0.62390    1.000
    O96      O        0.55010    0.05610    0.56620    1.000
    Zr17     Zr       0.99120    0.63920    0.48880    1.000
    O97      O        0.97030    0.69050    0.37560    1.000
    O98      O        0.99280    0.70810    0.59390    1.000
    C65      C        0.97750    0.66320    0.31580    1.000
    C66      C        0.99870    0.69350    0.65770    1.000
    C67      C        0.99730    0.75720    0.71310    1.000
    H49      H        0.00200    0.80980    0.69570    1.000
    O99      O        0.97910    0.59290    0.29440    1.000
    O100     O        0.00370    0.62710    0.68600    1.000
    C68      C        0.97360    0.71160    0.24590    1.000
    H50      H        0.97590    0.68400    0.20520    1.000
    O101     O        0.90960    0.56380    0.42290    1.000
    H51      H        0.87610    0.58890    0.39160    1.000
    O102     O        0.93380    0.55010    0.44390    1.000
    Zr18     Zr       0.99120    0.86080    0.01120    1.000
    O103     O        0.97030    0.80950    0.12440    1.000
    O104     O        0.99280    0.79190    0.90610    1.000
    C69      C        0.97750    0.83680    0.18420    1.000
    C70      C        0.99870    0.80650    0.84230    1.000
    C71      C        0.99730    0.74280    0.78690    1.000
    H52      H        0.00200    0.69020    0.80430    1.000
    O105     O        0.97910    0.90710    0.20560    1.000
    O106     O        0.00370    0.87290    0.81400    1.000
    C72      C        0.97360    0.78840    0.25410    1.000
    H53      H        0.97590    0.81600    0.29480    1.000
    O107     O        0.90960    0.93620    0.07710    1.000
    H54      H        0.87610    0.91110    0.10840    1.000
    O108     O        0.93380    0.94990    0.05610    1.000
    Zr19     Zr       0.50880    0.86080    0.48880    1.000
    O109     O        0.52970    0.80950    0.37560    1.000
    O110     O        0.50720    0.79190    0.59390    1.000
    C73      C        0.52250    0.83680    0.31580    1.000
    C74      C        0.50130    0.80650    0.65770    1.000
    C75      C        0.50270    0.74280    0.71310    1.000
    H55      H        0.49800    0.69020    0.69570    1.000
    O111     O        0.52090    0.90710    0.29440    1.000
    O112     O        0.49630    0.87290    0.68600    1.000
    C76      C        0.52640    0.78840    0.24590    1.000
    H56      H        0.52410    0.81600    0.20520    1.000
    O113     O        0.59040    0.93620    0.42290    1.000
    H57      H        0.62390    0.91110    0.39160    1.000
    O114     O        0.56620    0.94990    0.44390    1.000
    Zr20     Zr       0.50880    0.63920    0.01120    1.000
    O115     O        0.52970    0.69050    0.12440    1.000
    O116     O        0.50720    0.70810    0.90610    1.000
    C77      C        0.52250    0.66320    0.18420    1.000
    C78      C        0.50130    0.69350    0.84230    1.000
    C79      C        0.50270    0.75720    0.78690    1.000
    H58      H        0.49800    0.80980    0.80430    1.000
    O117     O        0.52090    0.59290    0.20560    1.000
    O118     O        0.49630    0.62710    0.81400    1.000
    C80      C        0.52640    0.71160    0.25410    1.000
    H59      H        0.52410    0.68400    0.29480    1.000
    O119     O        0.59040    0.56380    0.07710    1.000
    H60      H        0.62390    0.58890    0.10840    1.000
    O120     O        0.56620    0.55010    0.05610    1.000
    Zr21     Zr       0.48880    0.99120    0.63920    1.000
    O121     O        0.37560    0.97030    0.69050    1.000
    O122     O        0.59390    0.99280    0.70810    1.000
    C81      C        0.31580    0.97750    0.66320    1.000
    C82      C        0.65770    0.99870    0.69350    1.000
    C83      C        0.71310    0.99730    0.75720    1.000
    H61      H        0.69570    0.00200    0.80980    1.000
    O123     O        0.29440    0.97910    0.59290    1.000
    O124     O        0.68600    0.00370    0.62710    1.000
    C84      C        0.24590    0.97360    0.71160    1.000
    H62      H        0.20520    0.97590    0.68400    1.000
    O125     O        0.42290    0.90960    0.56380    1.000
    H63      H        0.39160    0.87610    0.58890    1.000
    O126     O        0.44390    0.93380    0.55010    1.000
    Zr22     Zr       0.01120    0.99120    0.86080    1.000
    O127     O        0.12440    0.97030    0.80950    1.000
    O128     O        0.90610    0.99280    0.79190    1.000
    C85      C        0.18420    0.97750    0.83680    1.000
    C86      C        0.84230    0.99870    0.80650    1.000
    C87      C        0.78690    0.99730    0.74280    1.000
    H64      H        0.80430    0.00200    0.69020    1.000
    O129     O        0.20560    0.97910    0.90710    1.000
    O130     O        0.81400    0.00370    0.87290    1.000
    C88      C        0.25410    0.97360    0.78840    1.000
    H65      H        0.29480    0.97590    0.81600    1.000
    O131     O        0.07710    0.90960    0.93620    1.000
    H66      H        0.10840    0.87610    0.91110    1.000
    O132     O        0.05610    0.93380    0.94990    1.000
    Zr23     Zr       0.48880    0.50880    0.86080    1.000
    O133     O        0.37560    0.52970    0.80950    1.000
    O134     O        0.59390    0.50720    0.79190    1.000
    C89      C        0.31580    0.52250    0.83680    1.000
    C90      C        0.65770    0.50130    0.80650    1.000
    C91      C        0.71310    0.50270    0.74280    1.000
    H67      H        0.69570    0.49800    0.69020    1.000
    O135     O        0.29440    0.52090    0.90710    1.000
    O136     O        0.68600    0.49630    0.87290    1.000
    C92      C        0.24590    0.52640    0.78840    1.000
    H68      H        0.20520    0.52410    0.81600    1.000
    O137     O        0.42290    0.59040    0.93620    1.000
    H69      H        0.39160    0.62390    0.91110    1.000
    O138     O        0.44390    0.56620    0.94990    1.000
    Zr24     Zr       0.01120    0.50880    0.63920    1.000
    O139     O        0.12440    0.52970    0.69050    1.000
    O140     O        0.90610    0.50720    0.70810    1.000
    C93      C        0.18420    0.52250    0.66320    1.000
    C94      C        0.84230    0.50130    0.69350    1.000
    C95      C        0.78690    0.50270    0.75720    1.000
    H70      H        0.80430    0.49800    0.80980    1.000
    O141     O        0.20560    0.52090    0.59290    1.000
    O142     O        0.81400    0.49630    0.62710    1.000
    C96      C        0.25410    0.52640    0.71160    1.000
    H71      H        0.29480    0.52410    0.68400    1.000
    O143     O        0.07710    0.59040    0.56380    1.000
    H72      H        0.10840    0.62390    0.58890    1.000
    O144     O        0.05610    0.56620    0.55010    1.000
    O145     O        0.43820    0.43820    0.06180    1.000
    H73      H        0.39300    0.39300    0.10700    1.000
    O146     O        0.42600    0.42600    0.07400    1.000
    O147     O        0.06180    0.06180    0.06180    1.000
    H74      H        0.10700    0.10700    0.10700    1.000
    O148     O        0.07400    0.07400    0.07400    1.000
    O149     O        0.06180    0.43820    0.43820    1.000
    H75      H        0.10700    0.39300    0.39300    1.000
    O150     O        0.07400    0.42600    0.42600    1.000
    O151     O        0.43820    0.06180    0.43820    1.000
    H76      H        0.39300    0.10700    0.39300    1.000
    O152     O        0.42600    0.07400    0.42600    1.000
    O153     O        0.56180    0.56180    0.93820    1.000
    H77      H        0.60700    0.60700    0.89300    1.000
    O154     O        0.57400    0.57400    0.92600    1.000
    O155     O        0.93820    0.93820    0.93820    1.000
    H78      H        0.89300    0.89300    0.89300    1.000
    O156     O        0.92600    0.92600    0.92600    1.000
    O157     O        0.93820    0.56180    0.56180    1.000
    H79      H        0.89300    0.60700    0.60700    1.000
    O158     O        0.92600    0.57400    0.57400    1.000
    O159     O        0.56180    0.93820    0.56180    1.000
    H80      H        0.60700    0.89300    0.60700    1.000
    O160     O        0.57400    0.92600    0.57400    1.000
