# CIF file generated by openbabel 3.1.0, see https://openbabel.org
data_I
_chemical_name_common 'image0'
_cell_length_a 10.1565
_cell_length_b 37.9051
_cell_length_c 41.2175
_cell_angle_alpha 90
_cell_angle_beta 99.894
_cell_angle_gamma 90
_space_group_name_H-M_alt 'P 1'
_space_group_name_Hall 'P 1'
loop_
    _symmetry_equiv_pos_as_xyz
    x,y,z
loop_
    _atom_site_label
    _atom_site_type_symbol
    _atom_site_fract_x
    _atom_site_fract_y
    _atom_site_fract_z
    _atom_site_occupancy
    Mn1      Mn       0.84924    0.33299    0.29257    1.000
    Mn2      Mn       0.52712    0.37998    0.28139    1.000
    Mn3      Mn       0.92424    0.89928    0.22683    1.000
    O1       O        0.64750    0.33280    0.26850    1.000
    O2       O        0.50150    0.35630    0.22920    1.000
    O3       O        0.17250    0.12340    0.82026    1.000
    O4       O        0.80890    0.94407    0.21492    1.000
    O5       O        0.92580    0.32630    0.24646    1.000
    O6       O        0.31570    0.91540    0.22349    1.000
    O7       O        0.11190    0.88870    0.21321    1.000
    O8       O        0.11800    0.35600    0.24500    1.000
    O9       O        0.05160    0.17270    0.81856    1.000
    O10      O        0.58320    0.12690    0.83212    1.000
    O11      O        0.78550    0.15100    0.83710    1.000
    O12      O        0.61710    0.91874    0.22168    1.000
    N1       N        0.76630    0.13290    0.09520    1.000
    N2       N        0.23870    0.14680    0.07840    1.000
    C1       C        0.58420    0.28010    0.16210    1.000
    H1       H        0.55800    0.28250    0.13950    1.000
    C2       C        0.72800    0.19590    0.10300    1.000
    H2       H        0.75380    0.20130    0.08300    1.000
    C3       C        0.41570    0.10170    0.09080    1.000
    H3       H        0.45630    0.11140    0.07430    1.000
    C4       C        0.70220    0.13650    0.88510    1.000
    C5       C        0.30050    0.11530    0.09660    1.000
    C6       C        0.65720    0.21660    0.15170    1.000
    C7       C        0.16210    0.18210    0.92000    1.000
    H4       H        0.14770    0.20300    0.93060    1.000
    C8       C        0.72820    0.16040    0.11350    1.000
    C9       C        0.73700    0.13680    0.99090    1.000
    C10      C        0.64810    0.27070    0.22980    1.000
    H5       H        0.67120    0.26770    0.25240    1.000
    C11      C        0.95640    0.04250    0.14550    1.000
    C12      C        0.98620    0.97730    0.15090    1.000
    H6       H        0.92880    0.97520    0.13090    1.000
    C13      C        0.99940    0.25740    0.17430    1.000
    H7       H        0.93370    0.24150    0.16510    1.000
    C14      C        0.75890    0.13590    0.06140    1.000
    C15      C        0.20850    0.15100    0.93970    1.000
    C16      C        0.41820    0.05870    0.13370    1.000
    C17      C        0.58080    0.33330    0.23780    1.000
    C18      C        0.60510    0.30380    0.21650    1.000
    C19      C        0.21860    0.12050    0.88820    1.000
    H8       H        0.24320    0.10040    0.87780    1.000
    C20      C        0.14030    0.18110    0.88760    1.000
    H9       H        0.10940    0.20150    0.87620    1.000
    C21      C        0.16140    0.15050    0.86890    1.000
    C22      C        0.65560    0.24260    0.20870    1.000
    H10      H        0.67600    0.22030    0.21770    1.000
    C23      C        0.20720    0.11970    0.99260    1.000
    H11      H        0.18830    0.09880    0.98090    1.000
    C24      C        0.09160    0.19360    0.09350    1.000
    H12      H        0.02670    0.18660    0.07600    1.000
    C25      C        0.64710    0.18140    0.16320    1.000
    H13      H        0.62040    0.17710    0.18330    1.000
    C26      C        0.83030    0.10160    0.11350    1.000
    C27      C        0.23650    0.14810    0.04500    1.000
    C28      C        0.28930    0.21420    0.14640    1.000
    H14      H        0.35360    0.22060    0.16430    1.000
    C29      C        0.24560    0.18010    0.02870    1.000
    H15      H        0.25570    0.20080    0.04090    1.000
    C30      C        0.61350    0.97260    0.19160    1.000
    C31      C        0.67750    0.15430    0.14420    1.000
    H16      H        0.66560    0.13130    0.15080    1.000
    C32      C        0.16680    0.98460    0.20900    1.000
    H17      H        0.22750    0.98800    0.22840    1.000
    C33      C        0.24000    0.18200    0.99400    1.000
    H18      H        0.24750    0.20370    0.98390    1.000
    C34      C        0.21760    0.11850    0.02500    1.000
    H19      H        0.21190    0.09660    0.03490    1.000
    C35      C        0.69100    0.22230    0.12170    1.000
    H20      H        0.68850    0.24530    0.11360    1.000
    C36      C        0.69400    0.13840    0.84860    1.000
    C37      C        0.10780    0.01170    0.19180    1.000
    H21      H        0.13060    0.03410    0.20000    1.000
    C38      C        0.59020    0.13390    0.90090    1.000
    H22      H        0.50560    0.13250    0.88810    1.000
    C39      C        0.85930    0.12470    0.04510    1.000
    H23      H        0.93760    0.11610    0.05770    1.000
    C40      C        0.23170    0.10060    0.11960    1.000
    H24      H        0.14900    0.10920    0.12270    1.000
    C41      C        0.85150    0.12530    0.01160    1.000
    H25      H        0.92450    0.11790    0.00250    1.000
    C42      C        0.63380    0.24630    0.17460    1.000
    C43      C        0.22280    0.15040    0.97480    1.000
    C44      C        0.88030    0.04060    0.11410    1.000
    H26      H        0.86900    0.01870    0.10380    1.000
    C45      C        0.96200    0.07520    0.16010    1.000
    H27      H        0.00340    0.07700    0.18190    1.000
    C46      C        0.48580    0.02800    0.15310    1.000
    C47      C        0.82500    0.14170    0.90620    1.000
    H28      H        0.90100    0.14590    0.89700    1.000
    C48      C        0.03800    0.94640    0.16730    1.000
    H29      H        0.01010    0.92430    0.15900    1.000
    C49      C        0.83720    0.14090    0.93970    1.000
    H30      H        0.92150    0.14230    0.95270    1.000
    C50      C        0.72250    0.13790    0.95490    1.000
    C51      C        0.03440    0.33180    0.23750    1.000
    C52      C        0.82230    0.06900    0.09810    1.000
    H31      H        0.77680    0.06680    0.07660    1.000
    C53      C        0.60180    0.13330    0.93560    1.000
    H32      H        0.52630    0.12970    0.94520    1.000
    C54      C        0.18860    0.30590    0.20000    1.000
    H33      H        0.24810    0.32400    0.20740    1.000
    C55      C        0.57330    0.30830    0.18120    1.000
    H34      H        0.54630    0.33010    0.17200    1.000
    C56      C        0.12700    0.25700    0.16420    1.000
    C57      C        0.61890    0.02920    0.16380    1.000
    H35      H        0.66700    0.04860    0.15840    1.000
    C58      C        0.06100    0.30510    0.21170    1.000
    C59      C        0.31290    0.18820    0.12390    1.000
    H36      H        0.39750    0.17810    0.12620    1.000
    C60      C        0.06500    0.21950    0.11350    1.000
    H37      H        0.98210    0.23060    0.10990    1.000
    C61      C        0.23670    0.12200    0.92330    1.000
    H38      H        0.26940    0.10220    0.93530    1.000
    C62      C        0.90980    0.10610    0.14420    1.000
    H39      H        0.92720    0.12830    0.15360    1.000
    C63      C        0.64160    0.14910    0.04200    1.000
    H40      H        0.57230    0.15790    0.05170    1.000
    C64      C        0.41330    0.00090    0.16030    1.000
    H41      H        0.32200    0.00000    0.15230    1.000
    C65      C        0.16350    0.22980    0.14010    1.000
    C66      C        0.97280    0.28130    0.19770    1.000
    H42      H        0.88910    0.28070    0.20390    1.000
    C67      C        0.21580    0.17700    0.09890    1.000
    C68      C        0.29490    0.07130    0.13850    1.000
    H43      H        0.25230    0.06080    0.15420    1.000
    C69      C        0.47530    0.07360    0.10870    1.000
    H44      H        0.55500    0.06460    0.10400    1.000
    C70      C        0.22550    0.28180    0.17910    1.000
    H45      H        0.31200    0.28140    0.17460    1.000
    C71      C        0.19500    0.91640    0.21310    1.000
    C72      C        0.01670    0.00980    0.16320    1.000
    C73      C        0.68720    0.00180    0.18320    1.000
    H46      H        0.77910    0.00300    0.19020    1.000
    C74      C        0.68310    0.94390    0.21100    1.000
    C75      C        0.12800    0.14840    0.83500    1.000
    C76      C        0.13220    0.94960    0.19610    1.000
    C77      C        0.47830    0.97260    0.18090    1.000
    H47      H        0.42700    0.95420    0.18680    1.000
    C78      C        0.63130    0.14860    0.00750    1.000
    H48      H        0.55210    0.15640    0.99480    1.000
    O13      O        0.35760    0.34360    0.28499    1.000
    H49      H        0.35600    0.35100    0.27300    1.000
    Mn4      Mn       0.15076    0.83299    0.20743    1.000
    Mn5      Mn       0.47288    0.87998    0.21861    1.000
    Mn6      Mn       0.07576    0.39928    0.27317    1.000
    O14      O        0.35250    0.83280    0.23150    1.000
    O15      O        0.49850    0.85630    0.27080    1.000
    O16      O        0.82750    0.62340    0.67974    1.000
    O17      O        0.19110    0.44407    0.28508    1.000
    O18      O        0.07420    0.82630    0.25354    1.000
    O19      O        0.68430    0.41540    0.27651    1.000
    O20      O        0.88810    0.38870    0.28679    1.000
    O21      O        0.88200    0.85600    0.25500    1.000
    O22      O        0.94840    0.67270    0.68144    1.000
    O23      O        0.41680    0.62690    0.66788    1.000
    O24      O        0.21450    0.65100    0.66290    1.000
    O25      O        0.38290    0.41874    0.27832    1.000
    N3       N        0.23370    0.63290    0.40480    1.000
    N4       N        0.76130    0.64680    0.42160    1.000
    C79      C        0.41580    0.78010    0.33790    1.000
    H50      H        0.44200    0.78250    0.36050    1.000
    C80      C        0.27200    0.69590    0.39700    1.000
    H51      H        0.24620    0.70130    0.41700    1.000
    C81      C        0.58430    0.60170    0.40920    1.000
    H52      H        0.54370    0.61140    0.42570    1.000
    C82      C        0.29780    0.63650    0.61490    1.000
    C83      C        0.69950    0.61530    0.40340    1.000
    C84      C        0.34280    0.71660    0.34830    1.000
    C85      C        0.83790    0.68210    0.58000    1.000
    H53      H        0.85230    0.70300    0.56940    1.000
    C86      C        0.27180    0.66040    0.38650    1.000
    C87      C        0.26300    0.63680    0.50910    1.000
    C88      C        0.35190    0.77070    0.27020    1.000
    H54      H        0.32880    0.76770    0.24760    1.000
    C89      C        0.04360    0.54250    0.35450    1.000
    C90      C        0.01380    0.47730    0.34910    1.000
    H55      H        0.07120    0.47520    0.36910    1.000
    C91      C        0.00060    0.75740    0.32570    1.000
    H56      H        0.06630    0.74150    0.33490    1.000
    C92      C        0.24110    0.63590    0.43860    1.000
    C93      C        0.79150    0.65100    0.56030    1.000
    C94      C        0.58180    0.55870    0.36630    1.000
    C95      C        0.41920    0.83330    0.26220    1.000
    C96      C        0.39490    0.80380    0.28350    1.000
    C97      C        0.78140    0.62050    0.61180    1.000
    H57      H        0.75680    0.60040    0.62220    1.000
    C98      C        0.85970    0.68110    0.61240    1.000
    H58      H        0.89060    0.70150    0.62380    1.000
    C99      C        0.83860    0.65050    0.63110    1.000
    C100     C        0.34440    0.74260    0.29130    1.000
    H59      H        0.32400    0.72030    0.28230    1.000
    C101     C        0.79280    0.61970    0.50740    1.000
    H60      H        0.81170    0.59880    0.51910    1.000
    C102     C        0.90840    0.69360    0.40650    1.000
    H61      H        0.97330    0.68660    0.42400    1.000
    C103     C        0.35290    0.68140    0.33680    1.000
    H62      H        0.37960    0.67710    0.31670    1.000
    C104     C        0.16970    0.60160    0.38650    1.000
    C105     C        0.76350    0.64810    0.45500    1.000
    C106     C        0.71070    0.71420    0.35360    1.000
    H63      H        0.64640    0.72060    0.33570    1.000
    C107     C        0.75440    0.68010    0.47130    1.000
    H64      H        0.74430    0.70080    0.45910    1.000
    C108     C        0.38650    0.47260    0.30840    1.000
    C109     C        0.32250    0.65430    0.35580    1.000
    H65      H        0.33440    0.63130    0.34920    1.000
    C110     C        0.83320    0.48460    0.29100    1.000
    H66      H        0.77250    0.48800    0.27160    1.000
    C111     C        0.76000    0.68200    0.50600    1.000
    H67      H        0.75250    0.70370    0.51610    1.000
    C112     C        0.78240    0.61850    0.47500    1.000
    H68      H        0.78810    0.59660    0.46510    1.000
    C113     C        0.30900    0.72230    0.37830    1.000
    H69      H        0.31150    0.74530    0.38640    1.000
    C114     C        0.30600    0.63840    0.65140    1.000
    C115     C        0.89220    0.51170    0.30820    1.000
    H70      H        0.86940    0.53410    0.30000    1.000
    C116     C        0.40980    0.63390    0.59910    1.000
    H71      H        0.49440    0.63250    0.61190    1.000
    C117     C        0.14070    0.62470    0.45490    1.000
    H72      H        0.06240    0.61610    0.44230    1.000
    C118     C        0.76830    0.60060    0.38040    1.000
    H73      H        0.85100    0.60920    0.37730    1.000
    C119     C        0.14850    0.62530    0.48840    1.000
    H74      H        0.07550    0.61790    0.49750    1.000
    C120     C        0.36620    0.74630    0.32540    1.000
    C121     C        0.77720    0.65040    0.52520    1.000
    C122     C        0.11970    0.54060    0.38590    1.000
    H75      H        0.13100    0.51870    0.39620    1.000
    C123     C        0.03800    0.57520    0.33990    1.000
    H76      H        0.99660    0.57700    0.31810    1.000
    C124     C        0.51420    0.52800    0.34690    1.000
    C125     C        0.17500    0.64170    0.59380    1.000
    H77      H        0.09900    0.64590    0.60300    1.000
    C126     C        0.96200    0.44640    0.33270    1.000
    H78      H        0.98990    0.42430    0.34100    1.000
    C127     C        0.16280    0.64090    0.56030    1.000
    H79      H        0.07850    0.64230    0.54730    1.000
    C128     C        0.27750    0.63790    0.54510    1.000
    C129     C        0.96560    0.83180    0.26250    1.000
    C130     C        0.17770    0.56900    0.40190    1.000
    H80      H        0.22320    0.56680    0.42340    1.000
    C131     C        0.39820    0.63330    0.56440    1.000
    H81      H        0.47370    0.62970    0.55480    1.000
    C132     C        0.81140    0.80590    0.30000    1.000
    H82      H        0.75190    0.82400    0.29260    1.000
    C133     C        0.42670    0.80830    0.31880    1.000
    H83      H        0.45370    0.83010    0.32800    1.000
    C134     C        0.87300    0.75700    0.33580    1.000
    C135     C        0.38110    0.52920    0.33620    1.000
    H84      H        0.33300    0.54860    0.34160    1.000
    C136     C        0.93900    0.80510    0.28830    1.000
    C137     C        0.68710    0.68820    0.37610    1.000
    H85      H        0.60250    0.67810    0.37380    1.000
    C138     C        0.93500    0.71950    0.38650    1.000
    H86      H        0.01790    0.73060    0.39010    1.000
    C139     C        0.76330    0.62200    0.57670    1.000
    H87      H        0.73060    0.60220    0.56470    1.000
    C140     C        0.09020    0.60610    0.35580    1.000
    H88      H        0.07280    0.62830    0.34640    1.000
    C141     C        0.35840    0.64910    0.45800    1.000
    H89      H        0.42770    0.65790    0.44830    1.000
    C142     C        0.58670    0.50090    0.33970    1.000
    H90      H        0.67800    0.50000    0.34770    1.000
    C143     C        0.83650    0.72980    0.35990    1.000
    C144     C        0.02720    0.78130    0.30230    1.000
    H91      H        0.11090    0.78070    0.29610    1.000
    C145     C        0.78420    0.67700    0.40110    1.000
    C146     C        0.70510    0.57130    0.36150    1.000
    H92      H        0.74770    0.56080    0.34580    1.000
    C147     C        0.52470    0.57360    0.39130    1.000
    H93      H        0.44500    0.56460    0.39600    1.000
    C148     C        0.77450    0.78180    0.32090    1.000
    H94      H        0.68800    0.78140    0.32540    1.000
    C149     C        0.80500    0.41640    0.28690    1.000
    C150     C        0.98330    0.50980    0.33680    1.000
    C151     C        0.31280    0.50180    0.31680    1.000
    H95      H        0.22090    0.50300    0.30980    1.000
    C152     C        0.31690    0.44390    0.28900    1.000
    C153     C        0.87200    0.64840    0.66500    1.000
    C154     C        0.86780    0.44960    0.30390    1.000
    C155     C        0.52170    0.47260    0.31910    1.000
    H96      H        0.57300    0.45420    0.31320    1.000
    C156     C        0.36870    0.64860    0.49250    1.000
    H97      H        0.44790    0.65640    0.50520    1.000
    O26      O        0.64240    0.84360    0.21501    1.000
    H98      H        0.64400    0.85100    0.22700    1.000
    Mn7      Mn       0.15076    0.66701    0.70743    1.000
    Mn8      Mn       0.47288    0.62002    0.71861    1.000
    Mn9      Mn       0.07576    0.10072    0.77317    1.000
    O27      O        0.35250    0.66720    0.73150    1.000
    O28      O        0.49850    0.64370    0.77080    1.000
    O29      O        0.82750    0.87660    0.17974    1.000
    O30      O        0.19110    0.05593    0.78508    1.000
    O31      O        0.07420    0.67370    0.75354    1.000
    O32      O        0.68430    0.08460    0.77651    1.000
    O33      O        0.88810    0.11130    0.78679    1.000
    O34      O        0.88200    0.64400    0.75500    1.000
    O35      O        0.94840    0.82730    0.18144    1.000
    O36      O        0.41680    0.87310    0.16788    1.000
    O37      O        0.21450    0.84900    0.16290    1.000
    O38      O        0.38290    0.08126    0.77832    1.000
    N5       N        0.23370    0.86710    0.90480    1.000
    N6       N        0.76130    0.85320    0.92160    1.000
    C157     C        0.41580    0.71990    0.83790    1.000
    H99      H        0.44200    0.71750    0.86050    1.000
    C158     C        0.27200    0.80410    0.89700    1.000
    H100     H        0.24620    0.79870    0.91700    1.000
    C159     C        0.58430    0.89830    0.90920    1.000
    H101     H        0.54370    0.88860    0.92570    1.000
    C160     C        0.29780    0.86350    0.11490    1.000
    C161     C        0.69950    0.88470    0.90340    1.000
    C162     C        0.34280    0.78340    0.84830    1.000
    C163     C        0.83790    0.81790    0.08000    1.000
    H102     H        0.85230    0.79700    0.06940    1.000
    C164     C        0.27180    0.83960    0.88650    1.000
    C165     C        0.26300    0.86320    0.00910    1.000
    C166     C        0.35190    0.72930    0.77020    1.000
    H103     H        0.32880    0.73230    0.74760    1.000
    C167     C        0.04360    0.95750    0.85450    1.000
    C168     C        0.01380    0.02270    0.84910    1.000
    H104     H        0.07120    0.02480    0.86910    1.000
    C169     C        0.00060    0.74260    0.82570    1.000
    H105     H        0.06630    0.75850    0.83490    1.000
    C170     C        0.24110    0.86410    0.93860    1.000
    C171     C        0.79150    0.84900    0.06030    1.000
    C172     C        0.58180    0.94130    0.86630    1.000
    C173     C        0.41920    0.66670    0.76220    1.000
    C174     C        0.39490    0.69620    0.78350    1.000
    C175     C        0.78140    0.87950    0.11180    1.000
    H106     H        0.75680    0.89960    0.12220    1.000
    C176     C        0.85970    0.81890    0.11240    1.000
    H107     H        0.89060    0.79850    0.12380    1.000
    C177     C        0.83860    0.84950    0.13110    1.000
    C178     C        0.34440    0.75740    0.79130    1.000
    H108     H        0.32400    0.77970    0.78230    1.000
    C179     C        0.79280    0.88030    0.00740    1.000
    H109     H        0.81170    0.90120    0.01910    1.000
    C180     C        0.90840    0.80640    0.90650    1.000
    H110     H        0.97330    0.81340    0.92400    1.000
    C181     C        0.35290    0.81860    0.83680    1.000
    H111     H        0.37960    0.82290    0.81670    1.000
    C182     C        0.16970    0.89840    0.88650    1.000
    C183     C        0.76350    0.85190    0.95500    1.000
    C184     C        0.71070    0.78580    0.85360    1.000
    H112     H        0.64640    0.77940    0.83570    1.000
    C185     C        0.75440    0.81990    0.97130    1.000
    H113     H        0.74430    0.79920    0.95910    1.000
    C186     C        0.38650    0.02740    0.80840    1.000
    C187     C        0.32250    0.84570    0.85580    1.000
    H114     H        0.33440    0.86870    0.84920    1.000
    C188     C        0.83320    0.01540    0.79100    1.000
    H115     H        0.77250    0.01200    0.77160    1.000
    C189     C        0.76000    0.81800    0.00600    1.000
    H116     H        0.75250    0.79630    0.01610    1.000
    C190     C        0.78240    0.88150    0.97500    1.000
    H117     H        0.78810    0.90340    0.96510    1.000
    C191     C        0.30900    0.77770    0.87830    1.000
    H118     H        0.31150    0.75470    0.88640    1.000
    C192     C        0.30600    0.86160    0.15140    1.000
    C193     C        0.89220    0.98830    0.80820    1.000
    H119     H        0.86940    0.96590    0.80000    1.000
    C194     C        0.40980    0.86610    0.09910    1.000
    H120     H        0.49440    0.86750    0.11190    1.000
    C195     C        0.14070    0.87530    0.95490    1.000
    H121     H        0.06240    0.88390    0.94230    1.000
    C196     C        0.76830    0.89940    0.88040    1.000
    H122     H        0.85100    0.89080    0.87730    1.000
    C197     C        0.14850    0.87470    0.98840    1.000
    H123     H        0.07550    0.88210    0.99750    1.000
    C198     C        0.36620    0.75370    0.82540    1.000
    C199     C        0.77720    0.84960    0.02520    1.000
    C200     C        0.11970    0.95940    0.88590    1.000
    H124     H        0.13100    0.98130    0.89620    1.000
    C201     C        0.03800    0.92480    0.83990    1.000
    H125     H        0.99660    0.92300    0.81810    1.000
    C202     C        0.51420    0.97200    0.84690    1.000
    C203     C        0.17500    0.85830    0.09380    1.000
    H126     H        0.09900    0.85410    0.10300    1.000
    C204     C        0.96200    0.05360    0.83270    1.000
    H127     H        0.98990    0.07570    0.84100    1.000
    C205     C        0.16280    0.85910    0.06030    1.000
    H128     H        0.07850    0.85770    0.04730    1.000
    C206     C        0.27750    0.86210    0.04510    1.000
    C207     C        0.96560    0.66820    0.76250    1.000
    C208     C        0.17770    0.93100    0.90190    1.000
    H129     H        0.22320    0.93320    0.92340    1.000
    C209     C        0.39820    0.86670    0.06440    1.000
    H130     H        0.47370    0.87030    0.05480    1.000
    C210     C        0.81140    0.69410    0.80000    1.000
    H131     H        0.75190    0.67600    0.79260    1.000
    C211     C        0.42670    0.69170    0.81880    1.000
    H132     H        0.45370    0.66990    0.82800    1.000
    C212     C        0.87300    0.74300    0.83580    1.000
    C213     C        0.38110    0.97080    0.83620    1.000
    H133     H        0.33300    0.95140    0.84160    1.000
    C214     C        0.93900    0.69490    0.78830    1.000
    C215     C        0.68710    0.81180    0.87610    1.000
    H134     H        0.60250    0.82190    0.87380    1.000
    C216     C        0.93500    0.78050    0.88650    1.000
    H135     H        0.01790    0.76940    0.89010    1.000
    C217     C        0.76330    0.87800    0.07670    1.000
    H136     H        0.73060    0.89780    0.06470    1.000
    C218     C        0.09020    0.89390    0.85580    1.000
    H137     H        0.07280    0.87170    0.84640    1.000
    C219     C        0.35840    0.85090    0.95800    1.000
    H138     H        0.42770    0.84210    0.94830    1.000
    C220     C        0.58670    0.99910    0.83970    1.000
    H139     H        0.67800    0.00000    0.84770    1.000
    C221     C        0.83650    0.77020    0.85990    1.000
    C222     C        0.02720    0.71870    0.80230    1.000
    H140     H        0.11090    0.71930    0.79610    1.000
    C223     C        0.78420    0.82300    0.90110    1.000
    C224     C        0.70510    0.92870    0.86150    1.000
    H141     H        0.74770    0.93920    0.84580    1.000
    C225     C        0.52470    0.92640    0.89130    1.000
    H142     H        0.44500    0.93540    0.89600    1.000
    C226     C        0.77450    0.71820    0.82090    1.000
    H143     H        0.68800    0.71860    0.82540    1.000
    C227     C        0.80500    0.08360    0.78690    1.000
    C228     C        0.98330    0.99020    0.83680    1.000
    C229     C        0.31280    0.99820    0.81680    1.000
    H144     H        0.22090    0.99700    0.80980    1.000
    C230     C        0.31690    0.05610    0.78900    1.000
    C231     C        0.87200    0.85160    0.16500    1.000
    C232     C        0.86780    0.05040    0.80390    1.000
    C233     C        0.52170    0.02740    0.81910    1.000
    H145     H        0.57300    0.04580    0.81320    1.000
    C234     C        0.36870    0.85140    0.99250    1.000
    H146     H        0.44790    0.84360    0.00520    1.000
    O39      O        0.64240    0.65640    0.71501    1.000
    H147     H        0.64400    0.64900    0.72700    1.000
    Mn10     Mn       0.84924    0.16701    0.79257    1.000
    Mn11     Mn       0.52712    0.12002    0.78139    1.000
    Mn12     Mn       0.92424    0.60072    0.72683    1.000
    O40      O        0.64750    0.16720    0.76850    1.000
    O41      O        0.50150    0.14370    0.72920    1.000
    O42      O        0.17250    0.37660    0.32026    1.000
    O43      O        0.80890    0.55593    0.71492    1.000
    O44      O        0.92580    0.17370    0.74646    1.000
    O45      O        0.31570    0.58460    0.72349    1.000
    O46      O        0.11190    0.61130    0.71321    1.000
    O47      O        0.11800    0.14400    0.74500    1.000
    O48      O        0.05160    0.32730    0.31856    1.000
    O49      O        0.58320    0.37310    0.33212    1.000
    O50      O        0.78550    0.34900    0.33710    1.000
    O51      O        0.61710    0.58126    0.72168    1.000
    N7       N        0.76630    0.36710    0.59520    1.000
    N8       N        0.23870    0.35320    0.57840    1.000
    C235     C        0.58420    0.21990    0.66210    1.000
    H148     H        0.55800    0.21750    0.63950    1.000
    C236     C        0.72800    0.30410    0.60300    1.000
    H149     H        0.75380    0.29870    0.58300    1.000
    C237     C        0.41570    0.39830    0.59080    1.000
    H150     H        0.45630    0.38860    0.57430    1.000
    C238     C        0.70220    0.36350    0.38510    1.000
    C239     C        0.30050    0.38470    0.59660    1.000
    C240     C        0.65720    0.28340    0.65170    1.000
    C241     C        0.16210    0.31790    0.42000    1.000
    H151     H        0.14770    0.29700    0.43060    1.000
    C242     C        0.72820    0.33960    0.61350    1.000
    C243     C        0.73700    0.36320    0.49090    1.000
    C244     C        0.64810    0.22930    0.72980    1.000
    H152     H        0.67120    0.23230    0.75240    1.000
    C245     C        0.95640    0.45750    0.64550    1.000
    C246     C        0.98620    0.52270    0.65090    1.000
    H153     H        0.92880    0.52480    0.63090    1.000
    C247     C        0.99940    0.24260    0.67430    1.000
    H154     H        0.93370    0.25850    0.66510    1.000
    C248     C        0.75890    0.36410    0.56140    1.000
    C249     C        0.20850    0.34900    0.43970    1.000
    C250     C        0.41820    0.44130    0.63370    1.000
    C251     C        0.58080    0.16670    0.73780    1.000
    C252     C        0.60510    0.19620    0.71650    1.000
    C253     C        0.21860    0.37950    0.38820    1.000
    H155     H        0.24320    0.39960    0.37780    1.000
    C254     C        0.14030    0.31890    0.38760    1.000
    H156     H        0.10940    0.29850    0.37620    1.000
    C255     C        0.16140    0.34950    0.36890    1.000
    C256     C        0.65560    0.25740    0.70870    1.000
    H157     H        0.67600    0.27970    0.71770    1.000
    C257     C        0.20720    0.38030    0.49260    1.000
    H158     H        0.18830    0.40120    0.48090    1.000
    C258     C        0.09160    0.30640    0.59350    1.000
    H159     H        0.02670    0.31340    0.57600    1.000
    C259     C        0.64710    0.31860    0.66320    1.000
    H160     H        0.62040    0.32290    0.68330    1.000
    C260     C        0.83030    0.39840    0.61350    1.000
    C261     C        0.23650    0.35190    0.54500    1.000
    C262     C        0.28930    0.28580    0.64640    1.000
    H161     H        0.35360    0.27940    0.66430    1.000
    C263     C        0.24560    0.31990    0.52870    1.000
    H162     H        0.25570    0.29920    0.54090    1.000
    C264     C        0.61350    0.52740    0.69160    1.000
    C265     C        0.67750    0.34570    0.64420    1.000
    H163     H        0.66560    0.36870    0.65080    1.000
    C266     C        0.16680    0.51540    0.70900    1.000
    H164     H        0.22750    0.51200    0.72840    1.000
    C267     C        0.24000    0.31800    0.49400    1.000
    H165     H        0.24750    0.29630    0.48390    1.000
    C268     C        0.21760    0.38150    0.52500    1.000
    H166     H        0.21190    0.40340    0.53490    1.000
    C269     C        0.69100    0.27770    0.62170    1.000
    H167     H        0.68850    0.25470    0.61360    1.000
    C270     C        0.69400    0.36160    0.34860    1.000
    C271     C        0.10780    0.48830    0.69180    1.000
    H168     H        0.13060    0.46590    0.70000    1.000
    C272     C        0.59020    0.36610    0.40090    1.000
    H169     H        0.50560    0.36750    0.38810    1.000
    C273     C        0.85930    0.37530    0.54510    1.000
    H170     H        0.93760    0.38390    0.55770    1.000
    C274     C        0.23170    0.39940    0.61960    1.000
    H171     H        0.14900    0.39080    0.62270    1.000
    C275     C        0.85150    0.37470    0.51160    1.000
    H172     H        0.92450    0.38210    0.50250    1.000
    C276     C        0.63380    0.25370    0.67460    1.000
    C277     C        0.22280    0.34960    0.47480    1.000
    C278     C        0.88030    0.45940    0.61410    1.000
    H173     H        0.86900    0.48130    0.60380    1.000
    C279     C        0.96200    0.42480    0.66010    1.000
    H174     H        0.00340    0.42300    0.68190    1.000
    C280     C        0.48580    0.47200    0.65310    1.000
    C281     C        0.82500    0.35830    0.40620    1.000
    H175     H        0.90100    0.35410    0.39700    1.000
    C282     C        0.03800    0.55360    0.66730    1.000
    H176     H        0.01010    0.57570    0.65900    1.000
    C283     C        0.83720    0.35910    0.43970    1.000
    H177     H        0.92150    0.35770    0.45270    1.000
    C284     C        0.72250    0.36210    0.45490    1.000
    C285     C        0.03440    0.16820    0.73750    1.000
    C286     C        0.82230    0.43100    0.59810    1.000
    H178     H        0.77680    0.43320    0.57660    1.000
    C287     C        0.60180    0.36670    0.43560    1.000
    H179     H        0.52630    0.37030    0.44520    1.000
    C288     C        0.18860    0.19410    0.70000    1.000
    H180     H        0.24810    0.17600    0.70740    1.000
    C289     C        0.57330    0.19170    0.68120    1.000
    H181     H        0.54630    0.16990    0.67200    1.000
    C290     C        0.12700    0.24300    0.66420    1.000
    C291     C        0.61890    0.47080    0.66380    1.000
    H182     H        0.66700    0.45140    0.65840    1.000
    C292     C        0.06100    0.19490    0.71170    1.000
    C293     C        0.31290    0.31180    0.62390    1.000
    H183     H        0.39750    0.32190    0.62620    1.000
    C294     C        0.06500    0.28050    0.61350    1.000
    H184     H        0.98210    0.26940    0.60990    1.000
    C295     C        0.23670    0.37800    0.42330    1.000
    H185     H        0.26940    0.39780    0.43530    1.000
    C296     C        0.90980    0.39390    0.64420    1.000
    H186     H        0.92720    0.37170    0.65360    1.000
    C297     C        0.64160    0.35090    0.54200    1.000
    H187     H        0.57230    0.34210    0.55170    1.000
    C298     C        0.41330    0.49910    0.66030    1.000
    H188     H        0.32200    0.50000    0.65230    1.000
    C299     C        0.16350    0.27020    0.64010    1.000
    C300     C        0.97280    0.21870    0.69770    1.000
    H189     H        0.88910    0.21930    0.70390    1.000
    C301     C        0.21580    0.32300    0.59890    1.000
    C302     C        0.29490    0.42870    0.63850    1.000
    H190     H        0.25230    0.43920    0.65420    1.000
    C303     C        0.47530    0.42640    0.60870    1.000
    H191     H        0.55500    0.43540    0.60400    1.000
    C304     C        0.22550    0.21820    0.67910    1.000
    H192     H        0.31200    0.21860    0.67460    1.000
    C305     C        0.19500    0.58360    0.71310    1.000
    C306     C        0.01670    0.49020    0.66320    1.000
    C307     C        0.68720    0.49820    0.68320    1.000
    H193     H        0.77910    0.49700    0.69020    1.000
    C308     C        0.68310    0.55610    0.71100    1.000
    C309     C        0.12800    0.35160    0.33500    1.000
    C310     C        0.13220    0.55040    0.69610    1.000
    C311     C        0.47830    0.52740    0.68090    1.000
    H194     H        0.42700    0.54580    0.68680    1.000
    C312     C        0.63130    0.35140    0.50750    1.000
    H195     H        0.55210    0.34360    0.49480    1.000
    O52      O        0.35760    0.15640    0.78499    1.000
    H196     H        0.35600    0.14900    0.77300    1.000
