# CIF file generated by openbabel 3.1.0, see https://openbabel.org
data_I
_chemical_name_common 'image0'
_cell_length_a 45.94
_cell_length_b 11.228
_cell_length_c 24.489
_cell_angle_alpha 90
_cell_angle_beta 98.809
_cell_angle_gamma 90
_space_group_name_H-M_alt 'P 1'
_space_group_name_Hall 'P 1'
loop_
    _symmetry_equiv_pos_as_xyz
    x,y,z
loop_
    _atom_site_label
    _atom_site_type_symbol
    _atom_site_fract_x
    _atom_site_fract_y
    _atom_site_fract_z
    _atom_site_occupancy
    Cd1      Cd       0.01422    0.33746    0.05893    1.000
    Cd2      Cd       0.21681    0.63792    0.07957    1.000
    N1       N        0.04454    0.68170    0.49240    1.000
    O1       O        0.01690    0.82980    0.96548    1.000
    N2       N        0.04220    0.21620    0.12310    1.000
    O2       O        0.02700    0.66620    0.01313    1.000
    N3       N        0.19669    0.72130    0.15440    1.000
    N4       N        0.18441    0.25730    0.51650    1.000
    O3       O        0.48032    0.88870    0.10910    1.000
    O4       O        0.08556    0.99050    0.24161    1.000
    O5       O        0.10109    0.79300    0.38679    1.000
    C1       C        0.11180    0.92870    0.08380    1.000
    C2       C        0.14140    0.97290    0.36940    1.000
    C3       C        0.09530    0.98930    0.04070    1.000
    H1       H        0.10130    0.06360    0.02990    1.000
    O6       O        0.15371    0.89280    0.26689    1.000
    C4       C        0.06969    0.93800    0.01380    1.000
    H2       H        0.05830    0.97830    0.98490    1.000
    C5       C        0.06083    0.82510    0.02980    1.000
    C6       C        0.07792    0.77070    0.07340    1.000
    H3       H        0.07240    0.69630    0.08490    1.000
    C7       C        0.10315    0.82330    0.10060    1.000
    H4       H        0.11410    0.78530    0.13070    1.000
    O7       O        0.25254    0.80220    0.08456    1.000
    C8       C        0.03322    0.77160    0.00190    1.000
    O8       O        0.26287    0.64610    0.13880    1.000
    C9       C        0.03447    0.74160    0.44610    1.000
    H5       H        0.01440    0.75780    0.43870    1.000
    O9       O        0.37160    0.97750    0.23320    1.000
    C10      C        0.07326    0.65530    0.50010    1.000
    H6       H        0.08070    0.60990    0.53090    1.000
    O10      O        0.49905    0.03720    0.16290    1.000
    C11      C        0.06028    0.26140    0.16520    1.000
    H7       H        0.06280    0.34360    0.16700    1.000
    C12      C        0.07567    0.19200    0.20660    1.000
    H8       H        0.08820    0.22710    0.23560    1.000
    C13      C        0.07215    0.07150    0.20430    1.000
    C14      C        0.05365    0.02300    0.15950    1.000
    H9       H        0.05170    0.94090    0.15550    1.000
    C15      C        0.03850    0.09790    0.12170    1.000
    H10      H        0.02500    0.06550    0.09350    1.000
    C16      C        0.10596    0.03640    0.28620    1.000
    H11      H        0.09640    0.09420    0.30690    1.000
    H12      H        0.12220    0.07510    0.27230    1.000
    C17      C        0.11713    0.93050    0.32300    1.000
    C18      C        0.09107    0.87910    0.34530    1.000
    H13      H        0.08050    0.94210    0.36090    1.000
    H14      H        0.07780    0.84180    0.31560    1.000
    C19      C        0.08134    0.75600    0.41950    1.000
    C20      C        0.09240    0.69030    0.46600    1.000
    H15      H        0.11230    0.67070    0.47370    1.000
    C21      C        0.05172    0.78060    0.40900    1.000
    H16      H        0.04360    0.82250    0.37750    1.000
    O11      O        0.12930    0.06880    0.39864    1.000
    C22      C        0.14823    0.12670    0.43720    1.000
    C23      C        0.13718    0.21620    0.46520    1.000
    H17      H        0.11720    0.23510    0.45790    1.000
    C24      C        0.17778    0.09980    0.44900    1.000
    H18      H        0.18590    0.03880    0.43060    1.000
    C25      C        0.13098    0.83660    0.29030    1.000
    H19      H        0.13900    0.77220    0.31440    1.000
    H20      H        0.11630    0.80400    0.26150    1.000
    C26      C        0.16786    0.83050    0.23090    1.000
    C27      C        0.18782    0.89250    0.20630    1.000
    H21      H        0.19190    0.97200    0.21500    1.000
    C28      C        0.20167    0.83410    0.16820    1.000
    H22      H        0.21530    0.87610    0.15120    1.000
    C29      C        0.17733    0.66240    0.17970    1.000
    H23      H        0.17390    0.58270    0.17070    1.000
    C30      C        0.16244    0.71100    0.21750    1.000
    H24      H        0.14910    0.66650    0.23400    1.000
    C31      C        0.15577    0.27890    0.50440    1.000
    H25      H        0.14780    0.33960    0.52340    1.000
    C32      C        0.19482    0.16630    0.48910    1.000
    H26      H        0.21470    0.14720    0.49790    1.000
    C33      C        0.26866    0.74790    0.12250    1.000
    C34      C        0.29633    0.80780    0.15170    1.000
    C35      C        0.30368    0.92070    0.13650    1.000
    H27      H        0.29190    0.95910    0.10760    1.000
    C36      C        0.32823    0.97720    0.16360    1.000
    H28      H        0.33260    0.05470    0.15430    1.000
    C37      C        0.34587    0.91910    0.20370    1.000
    C38      C        0.33887    0.80900    0.22040    1.000
    H29      H        0.35040    0.77190    0.25010    1.000
    C39      C        0.31479    0.75440    0.19270    1.000
    H30      H        0.31080    0.67670    0.20230    1.000
    C40      C        0.39712    0.97530    0.20780    1.000
    C41      C        0.39937    0.91340    0.16070    1.000
    H31      H        0.38340    0.87010    0.14310    1.000
    C42      C        0.42563    0.91530    0.13930    1.000
    H32      H        0.42700    0.87550    0.10640    1.000
    C43      C        0.44990    0.97610    0.16640    1.000
    C44      C        0.44670    0.03650    0.21490    1.000
    H33      H        0.46260    0.07870    0.23380    1.000
    C45      C        0.42091    0.03440    0.23490    1.000
    H34      H        0.41940    0.07390    0.26770    1.000
    C46      C        0.47852    0.96960    0.14450    1.000
    C47      C        0.18540    0.41780    0.08980    1.000
    O12      O        0.16720    0.50300    0.08090    1.000
    O13      O        0.21240    0.43420    0.09300    1.000
    C48      C        0.17482    0.29000    0.08460    1.000
    C49      C        0.15120    0.28340    0.11000    1.000
    H35      H        0.14330    0.35110    0.12380    1.000
    C50      C        0.18720    0.19080    0.07240    1.000
    H36      H        0.20500    0.19550    0.05920    1.000
    C51      C        0.15050    0.07600    0.09660    1.000
    C52      C        0.13860    0.16790    0.11520    1.000
    H37      H        0.12180    0.15970    0.13190    1.000
    C53      C        0.17540    0.08050    0.07800    1.000
    H38      H        0.18480    0.01180    0.06880    1.000
    O14      O        0.13780    0.96920    0.11150    1.000
    O15      O        0.19510    0.47560    0.08960    1.000
    O16      O        0.20440    0.37590    0.01780    1.000
    C54      C        0.19230    0.39020    0.06190    1.000
    Cd3      Cd       0.51422    0.83746    0.05893    1.000
    Cd4      Cd       0.71681    0.13792    0.07957    1.000
    N5       N        0.54454    0.18170    0.49240    1.000
    O17      O        0.51690    0.32980    0.96548    1.000
    N6       N        0.54220    0.71620    0.12310    1.000
    O18      O        0.52700    0.16620    0.01313    1.000
    N7       N        0.69669    0.22130    0.15440    1.000
    N8       N        0.68441    0.75730    0.51650    1.000
    O19      O        0.98032    0.38870    0.10910    1.000
    O20      O        0.58556    0.49050    0.24161    1.000
    O21      O        0.60109    0.29300    0.38679    1.000
    C55      C        0.61180    0.42870    0.08380    1.000
    C56      C        0.64140    0.47290    0.36940    1.000
    C57      C        0.59530    0.48930    0.04070    1.000
    H39      H        0.60130    0.56360    0.02990    1.000
    O22      O        0.65371    0.39280    0.26689    1.000
    C58      C        0.56969    0.43800    0.01380    1.000
    H40      H        0.55830    0.47830    0.98490    1.000
    C59      C        0.56083    0.32510    0.02980    1.000
    C60      C        0.57792    0.27070    0.07340    1.000
    H41      H        0.57240    0.19630    0.08490    1.000
    C61      C        0.60315    0.32330    0.10060    1.000
    H42      H        0.61410    0.28530    0.13070    1.000
    O23      O        0.75254    0.30220    0.08456    1.000
    C62      C        0.53322    0.27160    0.00190    1.000
    O24      O        0.76287    0.14610    0.13880    1.000
    C63      C        0.53447    0.24160    0.44610    1.000
    H43      H        0.51440    0.25780    0.43870    1.000
    O25      O        0.87160    0.47750    0.23320    1.000
    C64      C        0.57326    0.15530    0.50010    1.000
    H44      H        0.58070    0.10990    0.53090    1.000
    O26      O        0.99905    0.53720    0.16290    1.000
    C65      C        0.56028    0.76140    0.16520    1.000
    H45      H        0.56280    0.84360    0.16700    1.000
    C66      C        0.57567    0.69200    0.20660    1.000
    H46      H        0.58820    0.72710    0.23560    1.000
    C67      C        0.57215    0.57150    0.20430    1.000
    C68      C        0.55365    0.52300    0.15950    1.000
    H47      H        0.55170    0.44090    0.15550    1.000
    C69      C        0.53850    0.59790    0.12170    1.000
    H48      H        0.52500    0.56550    0.09350    1.000
    C70      C        0.60596    0.53640    0.28620    1.000
    H49      H        0.59640    0.59420    0.30690    1.000
    H50      H        0.62220    0.57510    0.27230    1.000
    C71      C        0.61713    0.43050    0.32300    1.000
    C72      C        0.59107    0.37910    0.34530    1.000
    H51      H        0.58050    0.44210    0.36090    1.000
    H52      H        0.57780    0.34180    0.31560    1.000
    C73      C        0.58134    0.25600    0.41950    1.000
    C74      C        0.59240    0.19030    0.46600    1.000
    H53      H        0.61230    0.17070    0.47370    1.000
    C75      C        0.55172    0.28060    0.40900    1.000
    H54      H        0.54360    0.32250    0.37750    1.000
    O27      O        0.62930    0.56880    0.39864    1.000
    C76      C        0.64823    0.62670    0.43720    1.000
    C77      C        0.63718    0.71620    0.46520    1.000
    H55      H        0.61720    0.73510    0.45790    1.000
    C78      C        0.67778    0.59980    0.44900    1.000
    H56      H        0.68590    0.53880    0.43060    1.000
    C79      C        0.63098    0.33660    0.29030    1.000
    H57      H        0.63900    0.27220    0.31440    1.000
    H58      H        0.61630    0.30400    0.26150    1.000
    C80      C        0.66786    0.33050    0.23090    1.000
    C81      C        0.68782    0.39250    0.20630    1.000
    H59      H        0.69190    0.47200    0.21500    1.000
    C82      C        0.70167    0.33410    0.16820    1.000
    H60      H        0.71530    0.37610    0.15120    1.000
    C83      C        0.67733    0.16240    0.17970    1.000
    H61      H        0.67390    0.08270    0.17070    1.000
    C84      C        0.66244    0.21100    0.21750    1.000
    H62      H        0.64910    0.16650    0.23400    1.000
    C85      C        0.65577    0.77890    0.50440    1.000
    H63      H        0.64780    0.83960    0.52340    1.000
    C86      C        0.69482    0.66630    0.48910    1.000
    H64      H        0.71470    0.64720    0.49790    1.000
    C87      C        0.76866    0.24790    0.12250    1.000
    C88      C        0.79633    0.30780    0.15170    1.000
    C89      C        0.80368    0.42070    0.13650    1.000
    H65      H        0.79190    0.45910    0.10760    1.000
    C90      C        0.82823    0.47720    0.16360    1.000
    H66      H        0.83260    0.55470    0.15430    1.000
    C91      C        0.84587    0.41910    0.20370    1.000
    C92      C        0.83887    0.30900    0.22040    1.000
    H67      H        0.85040    0.27190    0.25010    1.000
    C93      C        0.81479    0.25440    0.19270    1.000
    H68      H        0.81080    0.17670    0.20230    1.000
    C94      C        0.89712    0.47530    0.20780    1.000
    C95      C        0.89937    0.41340    0.16070    1.000
    H69      H        0.88340    0.37010    0.14310    1.000
    C96      C        0.92563    0.41530    0.13930    1.000
    H70      H        0.92700    0.37550    0.10640    1.000
    C97      C        0.94990    0.47610    0.16640    1.000
    C98      C        0.94670    0.53650    0.21490    1.000
    H71      H        0.96260    0.57870    0.23380    1.000
    C99      C        0.92091    0.53440    0.23490    1.000
    H72      H        0.91940    0.57390    0.26770    1.000
    C100     C        0.97852    0.46960    0.14450    1.000
    C101     C        0.68540    0.91780    0.08980    1.000
    O28      O        0.66720    0.00300    0.08090    1.000
    O29      O        0.71240    0.93420    0.09300    1.000
    C102     C        0.67482    0.79000    0.08460    1.000
    C103     C        0.65120    0.78340    0.11000    1.000
    H73      H        0.64330    0.85110    0.12380    1.000
    C104     C        0.68720    0.69080    0.07240    1.000
    H74      H        0.70500    0.69550    0.05920    1.000
    C105     C        0.65050    0.57600    0.09660    1.000
    C106     C        0.63860    0.66790    0.11520    1.000
    H75      H        0.62180    0.65970    0.13190    1.000
    C107     C        0.67540    0.58050    0.07800    1.000
    H76      H        0.68480    0.51180    0.06880    1.000
    O30      O        0.63780    0.46920    0.11150    1.000
    O31      O        0.69510    0.97560    0.08960    1.000
    O32      O        0.70440    0.87590    0.01780    1.000
    C108     C        0.69230    0.89020    0.06190    1.000
    Cd5      Cd       0.98578    0.33746    0.44107    1.000
    Cd6      Cd       0.78319    0.63792    0.42043    1.000
    N9       N        0.95546    0.68170    0.00760    1.000
    O33      O        0.98310    0.82980    0.53452    1.000
    N10      N        0.95780    0.21620    0.37690    1.000
    O34      O        0.97300    0.66620    0.48687    1.000
    N11      N        0.80331    0.72130    0.34560    1.000
    N12      N        0.81559    0.25730    0.98350    1.000
    O35      O        0.51968    0.88870    0.39090    1.000
    O36      O        0.91444    0.99050    0.25839    1.000
    O37      O        0.89891    0.79300    0.11321    1.000
    C109     C        0.88820    0.92870    0.41620    1.000
    C110     C        0.85860    0.97290    0.13060    1.000
    C111     C        0.90470    0.98930    0.45930    1.000
    H77      H        0.89870    0.06360    0.47010    1.000
    O38      O        0.84629    0.89280    0.23311    1.000
    C112     C        0.93031    0.93800    0.48620    1.000
    H78      H        0.94170    0.97830    0.51510    1.000
    C113     C        0.93917    0.82510    0.47020    1.000
    C114     C        0.92208    0.77070    0.42660    1.000
    H79      H        0.92760    0.69630    0.41510    1.000
    C115     C        0.89685    0.82330    0.39940    1.000
    H80      H        0.88590    0.78530    0.36930    1.000
    O39      O        0.74746    0.80220    0.41544    1.000
    C116     C        0.96678    0.77160    0.49810    1.000
    O40      O        0.73713    0.64610    0.36120    1.000
    C117     C        0.96553    0.74160    0.05390    1.000
    H81      H        0.98560    0.75780    0.06130    1.000
    O41      O        0.62840    0.97750    0.26680    1.000
    C118     C        0.92674    0.65530    0.99990    1.000
    H82      H        0.91930    0.60990    0.96910    1.000
    O42      O        0.50095    0.03720    0.33710    1.000
    C119     C        0.93972    0.26140    0.33480    1.000
    H83      H        0.93720    0.34360    0.33300    1.000
    C120     C        0.92433    0.19200    0.29340    1.000
    H84      H        0.91180    0.22710    0.26440    1.000
    C121     C        0.92785    0.07150    0.29570    1.000
    C122     C        0.94635    0.02300    0.34050    1.000
    H85      H        0.94830    0.94090    0.34450    1.000
    C123     C        0.96150    0.09790    0.37830    1.000
    H86      H        0.97500    0.06550    0.40650    1.000
    C124     C        0.89404    0.03640    0.21380    1.000
    H87      H        0.90360    0.09420    0.19310    1.000
    H88      H        0.87780    0.07510    0.22770    1.000
    C125     C        0.88287    0.93050    0.17700    1.000
    C126     C        0.90893    0.87910    0.15470    1.000
    H89      H        0.91950    0.94210    0.13910    1.000
    H90      H        0.92220    0.84180    0.18440    1.000
    C127     C        0.91866    0.75600    0.08050    1.000
    C128     C        0.90760    0.69030    0.03400    1.000
    H91      H        0.88770    0.67070    0.02630    1.000
    C129     C        0.94828    0.78060    0.09100    1.000
    H92      H        0.95640    0.82250    0.12250    1.000
    O43      O        0.87070    0.06880    0.10136    1.000
    C130     C        0.85177    0.12670    0.06280    1.000
    C131     C        0.86282    0.21620    0.03480    1.000
    H93      H        0.88280    0.23510    0.04210    1.000
    C132     C        0.82222    0.09980    0.05100    1.000
    H94      H        0.81410    0.03880    0.06940    1.000
    C133     C        0.86902    0.83660    0.20970    1.000
    H95      H        0.86100    0.77220    0.18560    1.000
    H96      H        0.88370    0.80400    0.23850    1.000
    C134     C        0.83214    0.83050    0.26910    1.000
    C135     C        0.81218    0.89250    0.29370    1.000
    H97      H        0.80810    0.97200    0.28500    1.000
    C136     C        0.79833    0.83410    0.33180    1.000
    H98      H        0.78470    0.87610    0.34880    1.000
    C137     C        0.82267    0.66240    0.32030    1.000
    H99      H        0.82610    0.58270    0.32930    1.000
    C138     C        0.83756    0.71100    0.28250    1.000
    H100     H        0.85090    0.66650    0.26600    1.000
    C139     C        0.84423    0.27890    0.99560    1.000
    H101     H        0.85220    0.33960    0.97660    1.000
    C140     C        0.80518    0.16630    0.01090    1.000
    H102     H        0.78530    0.14720    0.00210    1.000
    C141     C        0.73134    0.74790    0.37750    1.000
    C142     C        0.70367    0.80780    0.34830    1.000
    C143     C        0.69632    0.92070    0.36350    1.000
    H103     H        0.70810    0.95910    0.39240    1.000
    C144     C        0.67177    0.97720    0.33640    1.000
    H104     H        0.66740    0.05470    0.34570    1.000
    C145     C        0.65413    0.91910    0.29630    1.000
    C146     C        0.66113    0.80900    0.27960    1.000
    H105     H        0.64960    0.77190    0.24990    1.000
    C147     C        0.68521    0.75440    0.30730    1.000
    H106     H        0.68920    0.67670    0.29770    1.000
    C148     C        0.60288    0.97530    0.29220    1.000
    C149     C        0.60063    0.91340    0.33930    1.000
    H107     H        0.61660    0.87010    0.35690    1.000
    C150     C        0.57437    0.91530    0.36070    1.000
    H108     H        0.57300    0.87550    0.39360    1.000
    C151     C        0.55010    0.97610    0.33360    1.000
    C152     C        0.55330    0.03650    0.28510    1.000
    H109     H        0.53740    0.07870    0.26620    1.000
    C153     C        0.57909    0.03440    0.26510    1.000
    H110     H        0.58060    0.07390    0.23230    1.000
    C154     C        0.52148    0.96960    0.35550    1.000
    C155     C        0.81460    0.41780    0.41020    1.000
    O44      O        0.83280    0.50300    0.41910    1.000
    O45      O        0.78760    0.43420    0.40700    1.000
    C156     C        0.82518    0.29000    0.41540    1.000
    C157     C        0.84880    0.28340    0.39000    1.000
    H111     H        0.85670    0.35110    0.37620    1.000
    C158     C        0.81280    0.19080    0.42760    1.000
    H112     H        0.79500    0.19550    0.44080    1.000
    C159     C        0.84950    0.07600    0.40340    1.000
    C160     C        0.86140    0.16790    0.38480    1.000
    H113     H        0.87820    0.15970    0.36810    1.000
    C161     C        0.82460    0.08050    0.42200    1.000
    H114     H        0.81520    0.01180    0.43120    1.000
    O46      O        0.86220    0.96920    0.38850    1.000
    O47      O        0.80490    0.47560    0.41040    1.000
    O48      O        0.79560    0.37590    0.48220    1.000
    C162     C        0.80770    0.39020    0.43810    1.000
    Cd7      Cd       0.48578    0.83746    0.44107    1.000
    Cd8      Cd       0.28319    0.13792    0.42043    1.000
    N13      N        0.45546    0.18170    0.00760    1.000
    O49      O        0.48310    0.32980    0.53452    1.000
    N14      N        0.45780    0.71620    0.37690    1.000
    O50      O        0.47300    0.16620    0.48687    1.000
    N15      N        0.30331    0.22130    0.34560    1.000
    N16      N        0.31559    0.75730    0.98350    1.000
    O51      O        0.01968    0.38870    0.39090    1.000
    O52      O        0.41444    0.49050    0.25839    1.000
    O53      O        0.39891    0.29300    0.11321    1.000
    C163     C        0.38820    0.42870    0.41620    1.000
    C164     C        0.35860    0.47290    0.13060    1.000
    C165     C        0.40470    0.48930    0.45930    1.000
    H115     H        0.39870    0.56360    0.47010    1.000
    O54      O        0.34629    0.39280    0.23311    1.000
    C166     C        0.43031    0.43800    0.48620    1.000
    H116     H        0.44170    0.47830    0.51510    1.000
    C167     C        0.43917    0.32510    0.47020    1.000
    C168     C        0.42208    0.27070    0.42660    1.000
    H117     H        0.42760    0.19630    0.41510    1.000
    C169     C        0.39685    0.32330    0.39940    1.000
    H118     H        0.38590    0.28530    0.36930    1.000
    O55      O        0.24746    0.30220    0.41544    1.000
    C170     C        0.46678    0.27160    0.49810    1.000
    O56      O        0.23713    0.14610    0.36120    1.000
    C171     C        0.46553    0.24160    0.05390    1.000
    H119     H        0.48560    0.25780    0.06130    1.000
    O57      O        0.12840    0.47750    0.26680    1.000
    C172     C        0.42674    0.15530    0.99990    1.000
    H120     H        0.41930    0.10990    0.96910    1.000
    O58      O        0.00095    0.53720    0.33710    1.000
    C173     C        0.43972    0.76140    0.33480    1.000
    H121     H        0.43720    0.84360    0.33300    1.000
    C174     C        0.42433    0.69200    0.29340    1.000
    H122     H        0.41180    0.72710    0.26440    1.000
    C175     C        0.42785    0.57150    0.29570    1.000
    C176     C        0.44635    0.52300    0.34050    1.000
    H123     H        0.44830    0.44090    0.34450    1.000
    C177     C        0.46150    0.59790    0.37830    1.000
    H124     H        0.47500    0.56550    0.40650    1.000
    C178     C        0.39404    0.53640    0.21380    1.000
    H125     H        0.40360    0.59420    0.19310    1.000
    H126     H        0.37780    0.57510    0.22770    1.000
    C179     C        0.38287    0.43050    0.17700    1.000
    C180     C        0.40893    0.37910    0.15470    1.000
    H127     H        0.41950    0.44210    0.13910    1.000
    H128     H        0.42220    0.34180    0.18440    1.000
    C181     C        0.41866    0.25600    0.08050    1.000
    C182     C        0.40760    0.19030    0.03400    1.000
    H129     H        0.38770    0.17070    0.02630    1.000
    C183     C        0.44828    0.28060    0.09100    1.000
    H130     H        0.45640    0.32250    0.12250    1.000
    O59      O        0.37070    0.56880    0.10136    1.000
    C184     C        0.35177    0.62670    0.06280    1.000
    C185     C        0.36282    0.71620    0.03480    1.000
    H131     H        0.38280    0.73510    0.04210    1.000
    C186     C        0.32222    0.59980    0.05100    1.000
    H132     H        0.31410    0.53880    0.06940    1.000
    C187     C        0.36902    0.33660    0.20970    1.000
    H133     H        0.36100    0.27220    0.18560    1.000
    H134     H        0.38370    0.30400    0.23850    1.000
    C188     C        0.33214    0.33050    0.26910    1.000
    C189     C        0.31218    0.39250    0.29370    1.000
    H135     H        0.30810    0.47200    0.28500    1.000
    C190     C        0.29833    0.33410    0.33180    1.000
    H136     H        0.28470    0.37610    0.34880    1.000
    C191     C        0.32267    0.16240    0.32030    1.000
    H137     H        0.32610    0.08270    0.32930    1.000
    C192     C        0.33756    0.21100    0.28250    1.000
    H138     H        0.35090    0.16650    0.26600    1.000
    C193     C        0.34423    0.77890    0.99560    1.000
    H139     H        0.35220    0.83960    0.97660    1.000
    C194     C        0.30518    0.66630    0.01090    1.000
    H140     H        0.28530    0.64720    0.00210    1.000
    C195     C        0.23134    0.24790    0.37750    1.000
    C196     C        0.20367    0.30780    0.34830    1.000
    C197     C        0.19632    0.42070    0.36350    1.000
    H141     H        0.20810    0.45910    0.39240    1.000
    C198     C        0.17177    0.47720    0.33640    1.000
    H142     H        0.16740    0.55470    0.34570    1.000
    C199     C        0.15413    0.41910    0.29630    1.000
    C200     C        0.16113    0.30900    0.27960    1.000
    H143     H        0.14960    0.27190    0.24990    1.000
    C201     C        0.18521    0.25440    0.30730    1.000
    H144     H        0.18920    0.17670    0.29770    1.000
    C202     C        0.10288    0.47530    0.29220    1.000
    C203     C        0.10063    0.41340    0.33930    1.000
    H145     H        0.11660    0.37010    0.35690    1.000
    C204     C        0.07437    0.41530    0.36070    1.000
    H146     H        0.07300    0.37550    0.39360    1.000
    C205     C        0.05010    0.47610    0.33360    1.000
    C206     C        0.05330    0.53650    0.28510    1.000
    H147     H        0.03740    0.57870    0.26620    1.000
    C207     C        0.07909    0.53440    0.26510    1.000
    H148     H        0.08060    0.57390    0.23230    1.000
    C208     C        0.02148    0.46960    0.35550    1.000
    C209     C        0.31460    0.91780    0.41020    1.000
    O60      O        0.33280    0.00300    0.41910    1.000
    O61      O        0.28760    0.93420    0.40700    1.000
    C210     C        0.32518    0.79000    0.41540    1.000
    C211     C        0.34880    0.78340    0.39000    1.000
    H149     H        0.35670    0.85110    0.37620    1.000
    C212     C        0.31280    0.69080    0.42760    1.000
    H150     H        0.29500    0.69550    0.44080    1.000
    C213     C        0.34950    0.57600    0.40340    1.000
    C214     C        0.36140    0.66790    0.38480    1.000
    H151     H        0.37820    0.65970    0.36810    1.000
    C215     C        0.32460    0.58050    0.42200    1.000
    H152     H        0.31520    0.51180    0.43120    1.000
    O62      O        0.36220    0.46920    0.38850    1.000
    O63      O        0.30490    0.97560    0.41040    1.000
    O64      O        0.29560    0.87590    0.48220    1.000
    C216     C        0.30770    0.89020    0.43810    1.000
    Cd9      Cd       0.98578    0.66254    0.94107    1.000
    Cd10     Cd       0.78319    0.36208    0.92043    1.000
    N17      N        0.95546    0.31830    0.50760    1.000
    O65      O        0.98310    0.17020    0.03452    1.000
    N18      N        0.95780    0.78380    0.87690    1.000
    O66      O        0.97300    0.33380    0.98687    1.000
    N19      N        0.80331    0.27870    0.84560    1.000
    N20      N        0.81559    0.74270    0.48350    1.000
    O67      O        0.51968    0.11130    0.89090    1.000
    O68      O        0.91444    0.00950    0.75839    1.000
    O69      O        0.89891    0.20700    0.61321    1.000
    C217     C        0.88820    0.07130    0.91620    1.000
    C218     C        0.85860    0.02710    0.63060    1.000
    C219     C        0.90470    0.01070    0.95930    1.000
    H153     H        0.89870    0.93640    0.97010    1.000
    O70      O        0.84629    0.10720    0.73311    1.000
    C220     C        0.93031    0.06200    0.98620    1.000
    H154     H        0.94170    0.02170    0.01510    1.000
    C221     C        0.93917    0.17490    0.97020    1.000
    C222     C        0.92208    0.22930    0.92660    1.000
    H155     H        0.92760    0.30370    0.91510    1.000
    C223     C        0.89685    0.17670    0.89940    1.000
    H156     H        0.88590    0.21470    0.86930    1.000
    O71      O        0.74746    0.19780    0.91544    1.000
    C224     C        0.96678    0.22840    0.99810    1.000
    O72      O        0.73713    0.35390    0.86120    1.000
    C225     C        0.96553    0.25840    0.55390    1.000
    H157     H        0.98560    0.24220    0.56130    1.000
    O73      O        0.62840    0.02250    0.76680    1.000
    C226     C        0.92674    0.34470    0.49990    1.000
    H158     H        0.91930    0.39010    0.46910    1.000
    O74      O        0.50095    0.96280    0.83710    1.000
    C227     C        0.93972    0.73860    0.83480    1.000
    H159     H        0.93720    0.65640    0.83300    1.000
    C228     C        0.92433    0.80800    0.79340    1.000
    H160     H        0.91180    0.77290    0.76440    1.000
    C229     C        0.92785    0.92850    0.79570    1.000
    C230     C        0.94635    0.97700    0.84050    1.000
    H161     H        0.94830    0.05910    0.84450    1.000
    C231     C        0.96150    0.90210    0.87830    1.000
    H162     H        0.97500    0.93450    0.90650    1.000
    C232     C        0.89404    0.96360    0.71380    1.000
    H163     H        0.90360    0.90580    0.69310    1.000
    H164     H        0.87780    0.92490    0.72770    1.000
    C233     C        0.88287    0.06950    0.67700    1.000
    C234     C        0.90893    0.12090    0.65470    1.000
    H165     H        0.91950    0.05790    0.63910    1.000
    H166     H        0.92220    0.15820    0.68440    1.000
    C235     C        0.91866    0.24400    0.58050    1.000
    C236     C        0.90760    0.30970    0.53400    1.000
    H167     H        0.88770    0.32930    0.52630    1.000
    C237     C        0.94828    0.21940    0.59100    1.000
    H168     H        0.95640    0.17750    0.62250    1.000
    O75      O        0.87070    0.93120    0.60136    1.000
    C238     C        0.85177    0.87330    0.56280    1.000
    C239     C        0.86282    0.78380    0.53480    1.000
    H169     H        0.88280    0.76490    0.54210    1.000
    C240     C        0.82222    0.90020    0.55100    1.000
    H170     H        0.81410    0.96120    0.56940    1.000
    C241     C        0.86902    0.16340    0.70970    1.000
    H171     H        0.86100    0.22780    0.68560    1.000
    H172     H        0.88370    0.19600    0.73850    1.000
    C242     C        0.83214    0.16950    0.76910    1.000
    C243     C        0.81218    0.10750    0.79370    1.000
    H173     H        0.80810    0.02800    0.78500    1.000
    C244     C        0.79833    0.16590    0.83180    1.000
    H174     H        0.78470    0.12390    0.84880    1.000
    C245     C        0.82267    0.33760    0.82030    1.000
    H175     H        0.82610    0.41730    0.82930    1.000
    C246     C        0.83756    0.28900    0.78250    1.000
    H176     H        0.85090    0.33350    0.76600    1.000
    C247     C        0.84423    0.72110    0.49560    1.000
    H177     H        0.85220    0.66040    0.47660    1.000
    C248     C        0.80518    0.83370    0.51090    1.000
    H178     H        0.78530    0.85280    0.50210    1.000
    C249     C        0.73134    0.25210    0.87750    1.000
    C250     C        0.70367    0.19220    0.84830    1.000
    C251     C        0.69632    0.07930    0.86350    1.000
    H179     H        0.70810    0.04090    0.89240    1.000
    C252     C        0.67177    0.02280    0.83640    1.000
    H180     H        0.66740    0.94530    0.84570    1.000
    C253     C        0.65413    0.08090    0.79630    1.000
    C254     C        0.66113    0.19100    0.77960    1.000
    H181     H        0.64960    0.22810    0.74990    1.000
    C255     C        0.68521    0.24560    0.80730    1.000
    H182     H        0.68920    0.32330    0.79770    1.000
    C256     C        0.60288    0.02470    0.79220    1.000
    C257     C        0.60063    0.08660    0.83930    1.000
    H183     H        0.61660    0.12990    0.85690    1.000
    C258     C        0.57437    0.08470    0.86070    1.000
    H184     H        0.57300    0.12450    0.89360    1.000
    C259     C        0.55010    0.02390    0.83360    1.000
    C260     C        0.55330    0.96350    0.78510    1.000
    H185     H        0.53740    0.92130    0.76620    1.000
    C261     C        0.57909    0.96560    0.76510    1.000
    H186     H        0.58060    0.92610    0.73230    1.000
    C262     C        0.52148    0.03040    0.85550    1.000
    C263     C        0.81460    0.58220    0.91020    1.000
    O76      O        0.83280    0.49700    0.91910    1.000
    O77      O        0.78760    0.56580    0.90700    1.000
    C264     C        0.82518    0.71000    0.91540    1.000
    C265     C        0.84880    0.71660    0.89000    1.000
    H187     H        0.85670    0.64890    0.87620    1.000
    C266     C        0.81280    0.80920    0.92760    1.000
    H188     H        0.79500    0.80450    0.94080    1.000
    C267     C        0.84950    0.92400    0.90340    1.000
    C268     C        0.86140    0.83210    0.88480    1.000
    H189     H        0.87820    0.84030    0.86810    1.000
    C269     C        0.82460    0.91950    0.92200    1.000
    H190     H        0.81520    0.98820    0.93120    1.000
    O78      O        0.86220    0.03080    0.88850    1.000
    O79      O        0.80490    0.52440    0.91040    1.000
    O80      O        0.79560    0.62410    0.98220    1.000
    C270     C        0.80770    0.60980    0.93810    1.000
    Cd11     Cd       0.48578    0.16254    0.94107    1.000
    Cd12     Cd       0.28319    0.86208    0.92043    1.000
    N21      N        0.45546    0.81830    0.50760    1.000
    O81      O        0.48310    0.67020    0.03452    1.000
    N22      N        0.45780    0.28380    0.87690    1.000
    O82      O        0.47300    0.83380    0.98687    1.000
    N23      N        0.30331    0.77870    0.84560    1.000
    N24      N        0.31559    0.24270    0.48350    1.000
    O83      O        0.01968    0.61130    0.89090    1.000
    O84      O        0.41444    0.50950    0.75839    1.000
    O85      O        0.39891    0.70700    0.61321    1.000
    C271     C        0.38820    0.57130    0.91620    1.000
    C272     C        0.35860    0.52710    0.63060    1.000
    C273     C        0.40470    0.51070    0.95930    1.000
    H191     H        0.39870    0.43640    0.97010    1.000
    O86      O        0.34629    0.60720    0.73311    1.000
    C274     C        0.43031    0.56200    0.98620    1.000
    H192     H        0.44170    0.52170    0.01510    1.000
    C275     C        0.43917    0.67490    0.97020    1.000
    C276     C        0.42208    0.72930    0.92660    1.000
    H193     H        0.42760    0.80370    0.91510    1.000
    C277     C        0.39685    0.67670    0.89940    1.000
    H194     H        0.38590    0.71470    0.86930    1.000
    O87      O        0.24746    0.69780    0.91544    1.000
    C278     C        0.46678    0.72840    0.99810    1.000
    O88      O        0.23713    0.85390    0.86120    1.000
    C279     C        0.46553    0.75840    0.55390    1.000
    H195     H        0.48560    0.74220    0.56130    1.000
    O89      O        0.12840    0.52250    0.76680    1.000
    C280     C        0.42674    0.84470    0.49990    1.000
    H196     H        0.41930    0.89010    0.46910    1.000
    O90      O        0.00095    0.46280    0.83710    1.000
    C281     C        0.43972    0.23860    0.83480    1.000
    H197     H        0.43720    0.15640    0.83300    1.000
    C282     C        0.42433    0.30800    0.79340    1.000
    H198     H        0.41180    0.27290    0.76440    1.000
    C283     C        0.42785    0.42850    0.79570    1.000
    C284     C        0.44635    0.47700    0.84050    1.000
    H199     H        0.44830    0.55910    0.84450    1.000
    C285     C        0.46150    0.40210    0.87830    1.000
    H200     H        0.47500    0.43450    0.90650    1.000
    C286     C        0.39404    0.46360    0.71380    1.000
    H201     H        0.40360    0.40580    0.69310    1.000
    H202     H        0.37780    0.42490    0.72770    1.000
    C287     C        0.38287    0.56950    0.67700    1.000
    C288     C        0.40893    0.62090    0.65470    1.000
    H203     H        0.41950    0.55790    0.63910    1.000
    H204     H        0.42220    0.65820    0.68440    1.000
    C289     C        0.41866    0.74400    0.58050    1.000
    C290     C        0.40760    0.80970    0.53400    1.000
    H205     H        0.38770    0.82930    0.52630    1.000
    C291     C        0.44828    0.71940    0.59100    1.000
    H206     H        0.45640    0.67750    0.62250    1.000
    O91      O        0.37070    0.43120    0.60136    1.000
    C292     C        0.35177    0.37330    0.56280    1.000
    C293     C        0.36282    0.28380    0.53480    1.000
    H207     H        0.38280    0.26490    0.54210    1.000
    C294     C        0.32222    0.40020    0.55100    1.000
    H208     H        0.31410    0.46120    0.56940    1.000
    C295     C        0.36902    0.66340    0.70970    1.000
    H209     H        0.36100    0.72780    0.68560    1.000
    H210     H        0.38370    0.69600    0.73850    1.000
    C296     C        0.33214    0.66950    0.76910    1.000
    C297     C        0.31218    0.60750    0.79370    1.000
    H211     H        0.30810    0.52800    0.78500    1.000
    C298     C        0.29833    0.66590    0.83180    1.000
    H212     H        0.28470    0.62390    0.84880    1.000
    C299     C        0.32267    0.83760    0.82030    1.000
    H213     H        0.32610    0.91730    0.82930    1.000
    C300     C        0.33756    0.78900    0.78250    1.000
    H214     H        0.35090    0.83350    0.76600    1.000
    C301     C        0.34423    0.22110    0.49560    1.000
    H215     H        0.35220    0.16040    0.47660    1.000
    C302     C        0.30518    0.33370    0.51090    1.000
    H216     H        0.28530    0.35280    0.50210    1.000
    C303     C        0.23134    0.75210    0.87750    1.000
    C304     C        0.20367    0.69220    0.84830    1.000
    C305     C        0.19632    0.57930    0.86350    1.000
    H217     H        0.20810    0.54090    0.89240    1.000
    C306     C        0.17177    0.52280    0.83640    1.000
    H218     H        0.16740    0.44530    0.84570    1.000
    C307     C        0.15413    0.58090    0.79630    1.000
    C308     C        0.16113    0.69100    0.77960    1.000
    H219     H        0.14960    0.72810    0.74990    1.000
    C309     C        0.18521    0.74560    0.80730    1.000
    H220     H        0.18920    0.82330    0.79770    1.000
    C310     C        0.10288    0.52470    0.79220    1.000
    C311     C        0.10063    0.58660    0.83930    1.000
    H221     H        0.11660    0.62990    0.85690    1.000
    C312     C        0.07437    0.58470    0.86070    1.000
    H222     H        0.07300    0.62450    0.89360    1.000
    C313     C        0.05010    0.52390    0.83360    1.000
    C314     C        0.05330    0.46350    0.78510    1.000
    H223     H        0.03740    0.42130    0.76620    1.000
    C315     C        0.07909    0.46560    0.76510    1.000
    H224     H        0.08060    0.42610    0.73230    1.000
    C316     C        0.02148    0.53040    0.85550    1.000
    C317     C        0.31460    0.08220    0.91020    1.000
    O92      O        0.33280    0.99700    0.91910    1.000
    O93      O        0.28760    0.06580    0.90700    1.000
    C318     C        0.32518    0.21000    0.91540    1.000
    C319     C        0.34880    0.21660    0.89000    1.000
    H225     H        0.35670    0.14890    0.87620    1.000
    C320     C        0.31280    0.30920    0.92760    1.000
    H226     H        0.29500    0.30450    0.94080    1.000
    C321     C        0.34950    0.42400    0.90340    1.000
    C322     C        0.36140    0.33210    0.88480    1.000
    H227     H        0.37820    0.34030    0.86810    1.000
    C323     C        0.32460    0.41950    0.92200    1.000
    H228     H        0.31520    0.48820    0.93120    1.000
    O94      O        0.36220    0.53080    0.88850    1.000
    O95      O        0.30490    0.02440    0.91040    1.000
    O96      O        0.29560    0.12410    0.98220    1.000
    C324     C        0.30770    0.10980    0.93810    1.000
    Cd13     Cd       0.01422    0.66254    0.55893    1.000
    Cd14     Cd       0.21681    0.36208    0.57957    1.000
    N25      N        0.04454    0.31830    0.99240    1.000
    O97      O        0.01690    0.17020    0.46548    1.000
    N26      N        0.04220    0.78380    0.62310    1.000
    O98      O        0.02700    0.33380    0.51313    1.000
    N27      N        0.19669    0.27870    0.65440    1.000
    N28      N        0.18441    0.74270    0.01650    1.000
    O99      O        0.48032    0.11130    0.60910    1.000
    O100     O        0.08556    0.00950    0.74161    1.000
    O101     O        0.10109    0.20700    0.88679    1.000
    C325     C        0.11180    0.07130    0.58380    1.000
    C326     C        0.14140    0.02710    0.86940    1.000
    C327     C        0.09530    0.01070    0.54070    1.000
    H229     H        0.10130    0.93640    0.52990    1.000
    O102     O        0.15371    0.10720    0.76689    1.000
    C328     C        0.06969    0.06200    0.51380    1.000
    H230     H        0.05830    0.02170    0.48490    1.000
    C329     C        0.06083    0.17490    0.52980    1.000
    C330     C        0.07792    0.22930    0.57340    1.000
    H231     H        0.07240    0.30370    0.58490    1.000
    C331     C        0.10315    0.17670    0.60060    1.000
    H232     H        0.11410    0.21470    0.63070    1.000
    O103     O        0.25254    0.19780    0.58456    1.000
    C332     C        0.03322    0.22840    0.50190    1.000
    O104     O        0.26287    0.35390    0.63880    1.000
    C333     C        0.03447    0.25840    0.94610    1.000
    H233     H        0.01440    0.24220    0.93870    1.000
    O105     O        0.37160    0.02250    0.73320    1.000
    C334     C        0.07326    0.34470    0.00010    1.000
    H234     H        0.08070    0.39010    0.03090    1.000
    O106     O        0.49905    0.96280    0.66290    1.000
    C335     C        0.06028    0.73860    0.66520    1.000
    H235     H        0.06280    0.65640    0.66700    1.000
    C336     C        0.07567    0.80800    0.70660    1.000
    H236     H        0.08820    0.77290    0.73560    1.000
    C337     C        0.07215    0.92850    0.70430    1.000
    C338     C        0.05365    0.97700    0.65950    1.000
    H237     H        0.05170    0.05910    0.65550    1.000
    C339     C        0.03850    0.90210    0.62170    1.000
    H238     H        0.02500    0.93450    0.59350    1.000
    C340     C        0.10596    0.96360    0.78620    1.000
    H239     H        0.09640    0.90580    0.80690    1.000
    H240     H        0.12220    0.92490    0.77230    1.000
    C341     C        0.11713    0.06950    0.82300    1.000
    C342     C        0.09107    0.12090    0.84530    1.000
    H241     H        0.08050    0.05790    0.86090    1.000
    H242     H        0.07780    0.15820    0.81560    1.000
    C343     C        0.08134    0.24400    0.91950    1.000
    C344     C        0.09240    0.30970    0.96600    1.000
    H243     H        0.11230    0.32930    0.97370    1.000
    C345     C        0.05172    0.21940    0.90900    1.000
    H244     H        0.04360    0.17750    0.87750    1.000
    O107     O        0.12930    0.93120    0.89864    1.000
    C346     C        0.14823    0.87330    0.93720    1.000
    C347     C        0.13718    0.78380    0.96520    1.000
    H245     H        0.11720    0.76490    0.95790    1.000
    C348     C        0.17778    0.90020    0.94900    1.000
    H246     H        0.18590    0.96120    0.93060    1.000
    C349     C        0.13098    0.16340    0.79030    1.000
    H247     H        0.13900    0.22780    0.81440    1.000
    H248     H        0.11630    0.19600    0.76150    1.000
    C350     C        0.16786    0.16950    0.73090    1.000
    C351     C        0.18782    0.10750    0.70630    1.000
    H249     H        0.19190    0.02800    0.71500    1.000
    C352     C        0.20167    0.16590    0.66820    1.000
    H250     H        0.21530    0.12390    0.65120    1.000
    C353     C        0.17733    0.33760    0.67970    1.000
    H251     H        0.17390    0.41730    0.67070    1.000
    C354     C        0.16244    0.28900    0.71750    1.000
    H252     H        0.14910    0.33350    0.73400    1.000
    C355     C        0.15577    0.72110    0.00440    1.000
    H253     H        0.14780    0.66040    0.02340    1.000
    C356     C        0.19482    0.83370    0.98910    1.000
    H254     H        0.21470    0.85280    0.99790    1.000
    C357     C        0.26866    0.25210    0.62250    1.000
    C358     C        0.29633    0.19220    0.65170    1.000
    C359     C        0.30368    0.07930    0.63650    1.000
    H255     H        0.29190    0.04090    0.60760    1.000
    C360     C        0.32823    0.02280    0.66360    1.000
    H256     H        0.33260    0.94530    0.65430    1.000
    C361     C        0.34587    0.08090    0.70370    1.000
    C362     C        0.33887    0.19100    0.72040    1.000
    H257     H        0.35040    0.22810    0.75010    1.000
    C363     C        0.31479    0.24560    0.69270    1.000
    H258     H        0.31080    0.32330    0.70230    1.000
    C364     C        0.39712    0.02470    0.70780    1.000
    C365     C        0.39937    0.08660    0.66070    1.000
    H259     H        0.38340    0.12990    0.64310    1.000
    C366     C        0.42563    0.08470    0.63930    1.000
    H260     H        0.42700    0.12450    0.60640    1.000
    C367     C        0.44990    0.02390    0.66640    1.000
    C368     C        0.44670    0.96350    0.71490    1.000
    H261     H        0.46260    0.92130    0.73380    1.000
    C369     C        0.42091    0.96560    0.73490    1.000
    H262     H        0.41940    0.92610    0.76770    1.000
    C370     C        0.47852    0.03040    0.64450    1.000
    C371     C        0.18540    0.58220    0.58980    1.000
    O108     O        0.16720    0.49700    0.58090    1.000
    O109     O        0.21240    0.56580    0.59300    1.000
    C372     C        0.17482    0.71000    0.58460    1.000
    C373     C        0.15120    0.71660    0.61000    1.000
    H263     H        0.14330    0.64890    0.62380    1.000
    C374     C        0.18720    0.80920    0.57240    1.000
    H264     H        0.20500    0.80450    0.55920    1.000
    C375     C        0.15050    0.92400    0.59660    1.000
    C376     C        0.13860    0.83210    0.61520    1.000
    H265     H        0.12180    0.84030    0.63190    1.000
    C377     C        0.17540    0.91950    0.57800    1.000
    H266     H        0.18480    0.98820    0.56880    1.000
    O110     O        0.13780    0.03080    0.61150    1.000
    O111     O        0.19510    0.52440    0.58960    1.000
    O112     O        0.20440    0.62410    0.51780    1.000
    C378     C        0.19230    0.60980    0.56190    1.000
    Cd15     Cd       0.51422    0.16254    0.55893    1.000
    Cd16     Cd       0.71681    0.86208    0.57957    1.000
    N29      N        0.54454    0.81830    0.99240    1.000
    O113     O        0.51690    0.67020    0.46548    1.000
    N30      N        0.54220    0.28380    0.62310    1.000
    O114     O        0.52700    0.83380    0.51313    1.000
    N31      N        0.69669    0.77870    0.65440    1.000
    N32      N        0.68441    0.24270    0.01650    1.000
    O115     O        0.98032    0.61130    0.60910    1.000
    O116     O        0.58556    0.50950    0.74161    1.000
    O117     O        0.60109    0.70700    0.88679    1.000
    C379     C        0.61180    0.57130    0.58380    1.000
    C380     C        0.64140    0.52710    0.86940    1.000
    C381     C        0.59530    0.51070    0.54070    1.000
    H267     H        0.60130    0.43640    0.52990    1.000
    O118     O        0.65371    0.60720    0.76689    1.000
    C382     C        0.56969    0.56200    0.51380    1.000
    H268     H        0.55830    0.52170    0.48490    1.000
    C383     C        0.56083    0.67490    0.52980    1.000
    C384     C        0.57792    0.72930    0.57340    1.000
    H269     H        0.57240    0.80370    0.58490    1.000
    C385     C        0.60315    0.67670    0.60060    1.000
    H270     H        0.61410    0.71470    0.63070    1.000
    O119     O        0.75254    0.69780    0.58456    1.000
    C386     C        0.53322    0.72840    0.50190    1.000
    O120     O        0.76287    0.85390    0.63880    1.000
    C387     C        0.53447    0.75840    0.94610    1.000
    H271     H        0.51440    0.74220    0.93870    1.000
    O121     O        0.87160    0.52250    0.73320    1.000
    C388     C        0.57326    0.84470    0.00010    1.000
    H272     H        0.58070    0.89010    0.03090    1.000
    O122     O        0.99905    0.46280    0.66290    1.000
    C389     C        0.56028    0.23860    0.66520    1.000
    H273     H        0.56280    0.15640    0.66700    1.000
    C390     C        0.57567    0.30800    0.70660    1.000
    H274     H        0.58820    0.27290    0.73560    1.000
    C391     C        0.57215    0.42850    0.70430    1.000
    C392     C        0.55365    0.47700    0.65950    1.000
    H275     H        0.55170    0.55910    0.65550    1.000
    C393     C        0.53850    0.40210    0.62170    1.000
    H276     H        0.52500    0.43450    0.59350    1.000
    C394     C        0.60596    0.46360    0.78620    1.000
    H277     H        0.59640    0.40580    0.80690    1.000
    H278     H        0.62220    0.42490    0.77230    1.000
    C395     C        0.61713    0.56950    0.82300    1.000
    C396     C        0.59107    0.62090    0.84530    1.000
    H279     H        0.58050    0.55790    0.86090    1.000
    H280     H        0.57780    0.65820    0.81560    1.000
    C397     C        0.58134    0.74400    0.91950    1.000
    C398     C        0.59240    0.80970    0.96600    1.000
    H281     H        0.61230    0.82930    0.97370    1.000
    C399     C        0.55172    0.71940    0.90900    1.000
    H282     H        0.54360    0.67750    0.87750    1.000
    O123     O        0.62930    0.43120    0.89864    1.000
    C400     C        0.64823    0.37330    0.93720    1.000
    C401     C        0.63718    0.28380    0.96520    1.000
    H283     H        0.61720    0.26490    0.95790    1.000
    C402     C        0.67778    0.40020    0.94900    1.000
    H284     H        0.68590    0.46120    0.93060    1.000
    C403     C        0.63098    0.66340    0.79030    1.000
    H285     H        0.63900    0.72780    0.81440    1.000
    H286     H        0.61630    0.69600    0.76150    1.000
    C404     C        0.66786    0.66950    0.73090    1.000
    C405     C        0.68782    0.60750    0.70630    1.000
    H287     H        0.69190    0.52800    0.71500    1.000
    C406     C        0.70167    0.66590    0.66820    1.000
    H288     H        0.71530    0.62390    0.65120    1.000
    C407     C        0.67733    0.83760    0.67970    1.000
    H289     H        0.67390    0.91730    0.67070    1.000
    C408     C        0.66244    0.78900    0.71750    1.000
    H290     H        0.64910    0.83350    0.73400    1.000
    C409     C        0.65577    0.22110    0.00440    1.000
    H291     H        0.64780    0.16040    0.02340    1.000
    C410     C        0.69482    0.33370    0.98910    1.000
    H292     H        0.71470    0.35280    0.99790    1.000
    C411     C        0.76866    0.75210    0.62250    1.000
    C412     C        0.79633    0.69220    0.65170    1.000
    C413     C        0.80368    0.57930    0.63650    1.000
    H293     H        0.79190    0.54090    0.60760    1.000
    C414     C        0.82823    0.52280    0.66360    1.000
    H294     H        0.83260    0.44530    0.65430    1.000
    C415     C        0.84587    0.58090    0.70370    1.000
    C416     C        0.83887    0.69100    0.72040    1.000
    H295     H        0.85040    0.72810    0.75010    1.000
    C417     C        0.81479    0.74560    0.69270    1.000
    H296     H        0.81080    0.82330    0.70230    1.000
    C418     C        0.89712    0.52470    0.70780    1.000
    C419     C        0.89937    0.58660    0.66070    1.000
    H297     H        0.88340    0.62990    0.64310    1.000
    C420     C        0.92563    0.58470    0.63930    1.000
    H298     H        0.92700    0.62450    0.60640    1.000
    C421     C        0.94990    0.52390    0.66640    1.000
    C422     C        0.94670    0.46350    0.71490    1.000
    H299     H        0.96260    0.42130    0.73380    1.000
    C423     C        0.92091    0.46560    0.73490    1.000
    H300     H        0.91940    0.42610    0.76770    1.000
    C424     C        0.97852    0.53040    0.64450    1.000
    C425     C        0.68540    0.08220    0.58980    1.000
    O124     O        0.66720    0.99700    0.58090    1.000
    O125     O        0.71240    0.06580    0.59300    1.000
    C426     C        0.67482    0.21000    0.58460    1.000
    C427     C        0.65120    0.21660    0.61000    1.000
    H301     H        0.64330    0.14890    0.62380    1.000
    C428     C        0.68720    0.30920    0.57240    1.000
    H302     H        0.70500    0.30450    0.55920    1.000
    C429     C        0.65050    0.42400    0.59660    1.000
    C430     C        0.63860    0.33210    0.61520    1.000
    H303     H        0.62180    0.34030    0.63190    1.000
    C431     C        0.67540    0.41950    0.57800    1.000
    H304     H        0.68480    0.48820    0.56880    1.000
    O126     O        0.63780    0.53080    0.61150    1.000
    O127     O        0.69510    0.02440    0.58960    1.000
    O128     O        0.70440    0.12410    0.51780    1.000
    C432     C        0.69230    0.10980    0.56190    1.000
