# CIF file generated by openbabel 3.1.0, see https://openbabel.org
data_I
_chemical_name_common 'image0'
_cell_length_a 13.244
_cell_length_b 14.521
_cell_length_c 15.695
_cell_angle_alpha 90
_cell_angle_beta 92.746
_cell_angle_gamma 90
_space_group_name_H-M_alt 'P 1'
_space_group_name_Hall 'P 1'
loop_
    _symmetry_equiv_pos_as_xyz
    x,y,z
loop_
    _atom_site_label
    _atom_site_type_symbol
    _atom_site_fract_x
    _atom_site_fract_y
    _atom_site_fract_z
    _atom_site_occupancy
    Cu1      Cu       0.52973    0.20030    0.39005    1.000
    C1       C        0.82470    0.85270    0.12660    1.000
    H1       H        0.84640    0.86980    0.07340    1.000
    C2       C        0.75840    0.91020    0.16530    1.000
    H2       H        0.73780    0.96530    0.13970    1.000
    C3       C        0.72350    0.88460    0.24250    1.000
    C4       C        0.75870    0.80210    0.27830    1.000
    H3       H        0.73690    0.78270    0.33080    1.000
    C5       C        0.82600    0.74970    0.23530    1.000
    H4       H        0.84910    0.69480    0.25950    1.000
    C6       C        0.65580    0.94320    0.29060    1.000
    C7       C        0.09100    0.82670    0.21610    1.000
    H5       H        0.05810    0.87050    0.18160    1.000
    C8       C        0.16430    0.85730    0.27580    1.000
    H6       H        0.18450    0.91870    0.27640    1.000
    C9       C        0.20530    0.79810    0.33220    1.000
    C10      C        0.17420    0.70920    0.32640    1.000
    H7       H        0.19880    0.66590    0.36590    1.000
    C11      C        0.10570    0.68330    0.26130    1.000
    H8       H        0.08710    0.62170    0.25670    1.000
    C12      C        0.28320    0.82820    0.39700    1.000
    N1       N        0.85940    0.77520    0.15950    1.000
    N2       N        0.63340    0.03100    0.27080    1.000
    N3       N        0.57630    0.05870    0.33420    1.000
    N4       N        0.56560    0.98950    0.38700    1.000
    N5       N        0.61430    0.91590    0.36200    1.000
    N6       N        0.06580    0.74270    0.20550    1.000
    N7       N        0.33140    0.90780    0.39390    1.000
    N8       N        0.39420    0.90540    0.46200    1.000
    N9       N        0.38360    0.82840    0.50400    1.000
    N10      N        0.31270    0.77630    0.46410    1.000
    N11      N        0.42000    0.13130    0.44190    1.000
    N12      N        0.33980    0.15310    0.44370    1.000
    N13      N        0.25090    0.16290    0.43340    1.000
    Cu2      Cu       0.97027    0.70030    0.10995    1.000
    C13      C        0.67530    0.35270    0.37340    1.000
    H9       H        0.65360    0.36980    0.42660    1.000
    C14      C        0.74160    0.41020    0.33470    1.000
    H10      H        0.76220    0.46530    0.36030    1.000
    C15      C        0.77650    0.38460    0.25750    1.000
    C16      C        0.74130    0.30210    0.22170    1.000
    H11      H        0.76310    0.28270    0.16920    1.000
    C17      C        0.67400    0.24970    0.26470    1.000
    H12      H        0.65090    0.19480    0.24050    1.000
    C18      C        0.84420    0.44320    0.20940    1.000
    C19      C        0.40900    0.32670    0.28390    1.000
    H13      H        0.44190    0.37050    0.31840    1.000
    C20      C        0.33570    0.35730    0.22420    1.000
    H14      H        0.31550    0.41870    0.22360    1.000
    C21      C        0.29470    0.29810    0.16780    1.000
    C22      C        0.32580    0.20920    0.17360    1.000
    H15      H        0.30120    0.16590    0.13410    1.000
    C23      C        0.39430    0.18330    0.23870    1.000
    H16      H        0.41290    0.12170    0.24330    1.000
    C24      C        0.21680    0.32820    0.10300    1.000
    N14      N        0.64060    0.27520    0.34050    1.000
    N15      N        0.86660    0.53100    0.22920    1.000
    N16      N        0.92370    0.55870    0.16580    1.000
    N17      N        0.93440    0.48950    0.11300    1.000
    N18      N        0.88570    0.41590    0.13800    1.000
    N19      N        0.43420    0.24270    0.29450    1.000
    N20      N        0.16860    0.40780    0.10610    1.000
    N21      N        0.10580    0.40540    0.03800    1.000
    N22      N        0.11640    0.32840    0.99600    1.000
    N23      N        0.18730    0.27630    0.03590    1.000
    N24      N        0.08000    0.63130    0.05810    1.000
    N25      N        0.16020    0.65310    0.05630    1.000
    N26      N        0.24910    0.66290    0.06660    1.000
    Cu3      Cu       0.47027    0.79970    0.60995    1.000
    C25      C        0.17530    0.14730    0.87340    1.000
    H17      H        0.15360    0.13020    0.92660    1.000
    C26      C        0.24160    0.08980    0.83470    1.000
    H18      H        0.26220    0.03470    0.86030    1.000
    C27      C        0.27650    0.11540    0.75750    1.000
    C28      C        0.24130    0.19790    0.72170    1.000
    H19      H        0.26310    0.21730    0.66920    1.000
    C29      C        0.17400    0.25030    0.76470    1.000
    H20      H        0.15090    0.30520    0.74050    1.000
    C30      C        0.34420    0.05680    0.70940    1.000
    C31      C        0.90900    0.17330    0.78390    1.000
    H21      H        0.94190    0.12950    0.81840    1.000
    C32      C        0.83570    0.14270    0.72420    1.000
    H22      H        0.81550    0.08130    0.72360    1.000
    C33      C        0.79470    0.20190    0.66780    1.000
    C34      C        0.82580    0.29080    0.67360    1.000
    H23      H        0.80120    0.33410    0.63410    1.000
    C35      C        0.89430    0.31670    0.73870    1.000
    H24      H        0.91290    0.37830    0.74330    1.000
    C36      C        0.71680    0.17180    0.60300    1.000
    N27      N        0.14060    0.22480    0.84050    1.000
    N28      N        0.36660    0.96900    0.72920    1.000
    N29      N        0.42370    0.94130    0.66580    1.000
    N30      N        0.43440    0.01050    0.61300    1.000
    N31      N        0.38570    0.08410    0.63800    1.000
    N32      N        0.93420    0.25730    0.79450    1.000
    N33      N        0.66860    0.09220    0.60610    1.000
    N34      N        0.60580    0.09460    0.53800    1.000
    N35      N        0.61640    0.17160    0.49600    1.000
    N36      N        0.68730    0.22370    0.53590    1.000
    N37      N        0.58000    0.86870    0.55810    1.000
    N38      N        0.66020    0.84690    0.55630    1.000
    N39      N        0.74910    0.83710    0.56660    1.000
    Cu4      Cu       0.02973    0.29970    0.89005    1.000
    C37      C        0.32470    0.64730    0.62660    1.000
    H25      H        0.34640    0.63020    0.57340    1.000
    C38      C        0.25840    0.58980    0.66530    1.000
    H26      H        0.23780    0.53470    0.63970    1.000
    C39      C        0.22350    0.61540    0.74250    1.000
    C40      C        0.25870    0.69790    0.77830    1.000
    H27      H        0.23690    0.71730    0.83080    1.000
    C41      C        0.32600    0.75030    0.73530    1.000
    H28      H        0.34910    0.80520    0.75950    1.000
    C42      C        0.15580    0.55680    0.79060    1.000
    C43      C        0.59100    0.67330    0.71610    1.000
    H29      H        0.55810    0.62950    0.68160    1.000
    C44      C        0.66430    0.64270    0.77580    1.000
    H30      H        0.68450    0.58130    0.77640    1.000
    C45      C        0.70530    0.70190    0.83220    1.000
    C46      C        0.67420    0.79080    0.82640    1.000
    H31      H        0.69880    0.83410    0.86590    1.000
    C47      C        0.60570    0.81670    0.76130    1.000
    H32      H        0.58710    0.87830    0.75670    1.000
    C48      C        0.78320    0.67180    0.89700    1.000
    N40      N        0.35940    0.72480    0.65950    1.000
    N41      N        0.13340    0.46900    0.77080    1.000
    N42      N        0.07630    0.44130    0.83420    1.000
    N43      N        0.06560    0.51050    0.88700    1.000
    N44      N        0.11430    0.58410    0.86200    1.000
    N45      N        0.56580    0.75730    0.70550    1.000
    N46      N        0.83140    0.59220    0.89390    1.000
    N47      N        0.89420    0.59460    0.96200    1.000
    N48      N        0.88360    0.67160    0.00400    1.000
    N49      N        0.81270    0.72370    0.96410    1.000
    N50      N        0.92000    0.36870    0.94190    1.000
    N51      N        0.83980    0.34690    0.94370    1.000
    N52      N        0.75090    0.33710    0.93340    1.000
    Cu5      Cu       0.50000    0.00000    0.50000    1.000
    Cu6      Cu       0.00000    0.50000    0.00000    1.000
