# CIF file generated by openbabel 3.1.0, see https://openbabel.org
data_I
_chemical_name_common 'image0'
_cell_length_a 13.5739
_cell_length_b 13.5739
_cell_length_c 8.1156
_cell_angle_alpha 90
_cell_angle_beta 90
_cell_angle_gamma 120
_space_group_name_H-M_alt 'P 1'
_space_group_name_Hall 'P 1'
loop_
    _symmetry_equiv_pos_as_xyz
    x,y,z
loop_
    _atom_site_label
    _atom_site_type_symbol
    _atom_site_fract_x
    _atom_site_fract_y
    _atom_site_fract_z
    _atom_site_occupancy
    Mn1      Mn       0.29540    0.33182    0.54438    1.000
    O1       O        0.22720    0.17750    0.40640    1.000
    C1       C        0.53070    0.32080    0.55910    1.000
    C2       C        0.35240    0.55420    0.77330    1.000
    O2       O        0.23930    0.05500    0.24640    1.000
    C3       C        0.26250    0.15550    0.28080    1.000
    N1       N        0.33980    0.20720    0.00080    1.000
    H1       H        0.40340    0.25510    0.94520    1.000
    H2       H        0.27910    0.19720    0.94230    1.000
    C4       C        0.33990    0.25290    0.16510    1.000
    H3       H        0.41740    0.28480    0.20820    1.000
    N2       N        0.36260    0.42350    0.30490    1.000
    H4       H        0.34660    0.48020    0.29800    1.000
    H5       H        0.43880    0.45500    0.30390    1.000
    C5       C        0.31510    0.34930    0.15930    1.000
    H6       H        0.34780    0.39370    0.06000    1.000
    H7       H        0.23340    0.31880    0.15550    1.000
    N3       N        0.45180    0.31890    0.61130    1.000
    N4       N        0.36310    0.49380    0.69100    1.000
    Mn2      Mn       0.66818    0.96358    0.54438    1.000
    O3       O        0.82250    0.04970    0.40640    1.000
    C6       C        0.67920    0.20990    0.55910    1.000
    C7       C        0.44580    0.79820    0.77330    1.000
    O4       O        0.94500    0.18430    0.24640    1.000
    C8       C        0.84450    0.10700    0.28080    1.000
    N5       N        0.79280    0.13260    0.00080    1.000
    H8       H        0.74490    0.14830    0.94520    1.000
    H9       H        0.80280    0.08190    0.94230    1.000
    C9       C        0.74710    0.08700    0.16510    1.000
    H10      H        0.71520    0.13260    0.20820    1.000
    N6       N        0.57650    0.93910    0.30490    1.000
    H11      H        0.51980    0.86640    0.29800    1.000
    H12      H        0.54500    0.98380    0.30390    1.000
    C10      C        0.65070    0.96580    0.15930    1.000
    H13      H        0.60630    0.95410    0.06000    1.000
    H14      H        0.68120    0.91460    0.15550    1.000
    N7       N        0.68110    0.13290    0.61130    1.000
    N8       N        0.50620    0.86930    0.69100    1.000
    Mn3      Mn       0.03642    0.70460    0.54438    1.000
    O5       O        0.95030    0.77280    0.40640    1.000
    C11      C        0.79010    0.46930    0.55910    1.000
    C12      C        0.20180    0.64760    0.77330    1.000
    O6       O        0.81570    0.76070    0.24640    1.000
    C13      C        0.89300    0.73750    0.28080    1.000
    N9       N        0.86740    0.66020    0.00080    1.000
    H15      H        0.85170    0.59660    0.94520    1.000
    H16      H        0.91810    0.72090    0.94230    1.000
    C14      C        0.91300    0.66010    0.16510    1.000
    H17      H        0.86740    0.58260    0.20820    1.000
    N10      N        0.06090    0.63740    0.30490    1.000
    H18      H        0.13360    0.65340    0.29800    1.000
    H19      H        0.01620    0.56120    0.30390    1.000
    C15      C        0.03420    0.68490    0.15930    1.000
    H20      H        0.04590    0.65220    0.06000    1.000
    H21      H        0.08540    0.76660    0.15550    1.000
    N11      N        0.86710    0.54820    0.61130    1.000
    N12      N        0.13070    0.63690    0.69100    1.000
    Mn4      Mn       0.70460    0.66818    0.04438    1.000
    O7       O        0.77280    0.82250    0.90640    1.000
    C16      C        0.46930    0.67920    0.05910    1.000
    C17      C        0.64760    0.44580    0.27330    1.000
    O8       O        0.76070    0.94500    0.74640    1.000
    C18      C        0.73750    0.84450    0.78080    1.000
    N13      N        0.66020    0.79280    0.50080    1.000
    H22      H        0.59660    0.74490    0.44520    1.000
    H23      H        0.72090    0.80280    0.44230    1.000
    C19      C        0.66010    0.74710    0.66510    1.000
    H24      H        0.58260    0.71520    0.70820    1.000
    N14      N        0.63740    0.57650    0.80490    1.000
    H25      H        0.65340    0.51980    0.79800    1.000
    H26      H        0.56120    0.54500    0.80390    1.000
    C20      C        0.68490    0.65070    0.65930    1.000
    H27      H        0.65220    0.60630    0.56000    1.000
    H28      H        0.76660    0.68120    0.65550    1.000
    N15      N        0.54820    0.68110    0.11130    1.000
    N16      N        0.63690    0.50620    0.19100    1.000
    Mn5      Mn       0.33182    0.03642    0.04438    1.000
    O9       O        0.17750    0.95030    0.90640    1.000
    C21      C        0.32080    0.79010    0.05910    1.000
    C22      C        0.55420    0.20180    0.27330    1.000
    O10      O        0.05500    0.81570    0.74640    1.000
    C23      C        0.15550    0.89300    0.78080    1.000
    N17      N        0.20720    0.86740    0.50080    1.000
    H29      H        0.25510    0.85170    0.44520    1.000
    H30      H        0.19720    0.91810    0.44230    1.000
    C24      C        0.25290    0.91300    0.66510    1.000
    H31      H        0.28480    0.86740    0.70820    1.000
    N18      N        0.42350    0.06090    0.80490    1.000
    H32      H        0.48020    0.13360    0.79800    1.000
    H33      H        0.45500    0.01620    0.80390    1.000
    C25      C        0.34930    0.03420    0.65930    1.000
    H34      H        0.39370    0.04590    0.56000    1.000
    H35      H        0.31880    0.08540    0.65550    1.000
    N19      N        0.31890    0.86710    0.11130    1.000
    N20      N        0.49380    0.13070    0.19100    1.000
    Mn6      Mn       0.96358    0.29540    0.04438    1.000
    O11      O        0.04970    0.22720    0.90640    1.000
    C26      C        0.20990    0.53070    0.05910    1.000
    C27      C        0.79820    0.35240    0.27330    1.000
    O12      O        0.18430    0.23930    0.74640    1.000
    C28      C        0.10700    0.26250    0.78080    1.000
    N21      N        0.13260    0.33980    0.50080    1.000
    H36      H        0.14830    0.40340    0.44520    1.000
    H37      H        0.08190    0.27910    0.44230    1.000
    C29      C        0.08700    0.33990    0.66510    1.000
    H38      H        0.13260    0.41740    0.70820    1.000
    N22      N        0.93910    0.36260    0.80490    1.000
    H39      H        0.86640    0.34660    0.79800    1.000
    H40      H        0.98380    0.43880    0.80390    1.000
    C30      C        0.96580    0.31510    0.65930    1.000
    H41      H        0.95410    0.34780    0.56000    1.000
    H42      H        0.91460    0.23340    0.65550    1.000
    N23      N        0.13290    0.45180    0.11130    1.000
    N24      N        0.86930    0.36310    0.19100    1.000
    Cr1      Cr       0.33333    0.66667    0.92330    1.000
    Cr2      Cr       0.66667    0.33333    0.42330    1.000
