# CIF file generated by openbabel 3.1.0, see https://openbabel.org
data_I
_chemical_name_common 'image0'
_cell_length_a 5.0156
_cell_length_b 18.675
_cell_length_c 22.796
_cell_angle_alpha 90
_cell_angle_beta 95.41
_cell_angle_gamma 90
_space_group_name_H-M_alt 'P 1'
_space_group_name_Hall 'P 1'
loop_
    _symmetry_equiv_pos_as_xyz
    x,y,z
loop_
    _atom_site_label
    _atom_site_type_symbol
    _atom_site_fract_x
    _atom_site_fract_y
    _atom_site_fract_z
    _atom_site_occupancy
    Tm1      Tm       0.77715    0.43147    0.34598    1.000
    O1       O        0.08840    0.39010    0.41654    1.000
    O2       O        0.48960    0.43850    0.41175    1.000
    C1       C        0.32120    0.40440    0.43830    1.000
    C2       C        0.40330    0.37760    0.49910    1.000
    C3       C        0.62480    0.40640    0.53240    1.000
    H1       H        0.72920    0.44100    0.51620    1.000
    C4       C        0.69000    0.38320    0.59030    1.000
    C5       C        0.54060    0.32870    0.61270    1.000
    H2       H        0.58470    0.31260    0.65100    1.000
    C6       C        0.32630    0.29800    0.57870    1.000
    C7       C        0.25330    0.32410    0.52190    1.000
    H3       H        0.10440    0.30550    0.49960    1.000
    C8       C        0.90670    0.41910    0.62980    1.000
    O3       O        0.03300    0.46950    0.60875    1.000
    O4       O        0.94470    0.39730    0.68237    1.000
    N1       N        0.18250    0.24410    0.60630    1.000
    N2       N        0.01020    0.21320    0.57200    1.000
    C9       C        0.73640    0.09120    0.75160    1.000
    O5       O        0.94880    0.11170    0.77960    1.000
    O6       O        0.54420    0.06170    0.77349    1.000
    C10      C        0.70780    0.10260    0.68610    1.000
    C11      C        0.51050    0.06770    0.64980    1.000
    H4       H        0.39220    0.03690    0.66620    1.000
    C12      C        0.48870    0.07840    0.58940    1.000
    C13      C        0.65830    0.12660    0.56510    1.000
    H5       H        0.64030    0.13500    0.52470    1.000
    C14      C        0.85500    0.16240    0.60090    1.000
    C15      C        0.88170    0.14940    0.66140    1.000
    H6       H        0.01640    0.17210    0.68540    1.000
    C16      C        0.27980    0.04240    0.54960    1.000
    O7       O        0.13710    0.99520    0.57360    1.000
    H7       H        0.05900    0.98300    0.55700    1.000
    O8       O        0.24780    0.05880    0.49645    1.000
    Tm2      Tm       0.72285    0.93147    0.15402    1.000
    O9       O        0.41160    0.89010    0.08346    1.000
    O10      O        0.01040    0.93850    0.08825    1.000
    C17      C        0.17880    0.90440    0.06170    1.000
    C18      C        0.09670    0.87760    0.00090    1.000
    C19      C        0.87520    0.90640    0.96760    1.000
    H8       H        0.77080    0.94100    0.98380    1.000
    C20      C        0.81000    0.88320    0.90970    1.000
    C21      C        0.95940    0.82870    0.88730    1.000
    H9       H        0.91530    0.81260    0.84900    1.000
    C22      C        0.17370    0.79800    0.92130    1.000
    C23      C        0.24670    0.82410    0.97810    1.000
    H10      H        0.39560    0.80550    0.00040    1.000
    C24      C        0.59330    0.91910    0.87020    1.000
    O11      O        0.46700    0.96950    0.89125    1.000
    O12      O        0.55530    0.89730    0.81763    1.000
    N3       N        0.31750    0.74410    0.89370    1.000
    N4       N        0.48980    0.71320    0.92800    1.000
    C25      C        0.76360    0.59120    0.74840    1.000
    O13      O        0.55120    0.61170    0.72040    1.000
    O14      O        0.95580    0.56170    0.72651    1.000
    C26      C        0.79220    0.60260    0.81390    1.000
    C27      C        0.98950    0.56770    0.85020    1.000
    H11      H        0.10780    0.53690    0.83380    1.000
    C28      C        0.01130    0.57840    0.91060    1.000
    C29      C        0.84170    0.62660    0.93490    1.000
    H12      H        0.85970    0.63500    0.97530    1.000
    C30      C        0.64500    0.66240    0.89910    1.000
    C31      C        0.61830    0.64940    0.83860    1.000
    H13      H        0.48360    0.67210    0.81460    1.000
    C32      C        0.22020    0.54240    0.95040    1.000
    O15      O        0.36290    0.49520    0.92640    1.000
    H14      H        0.44100    0.48300    0.94300    1.000
    O16      O        0.25220    0.55880    0.00355    1.000
    Tm3      Tm       0.22285    0.56853    0.65402    1.000
    O17      O        0.91160    0.60990    0.58346    1.000
    O18      O        0.51040    0.56150    0.58825    1.000
    C33      C        0.67880    0.59560    0.56170    1.000
    C34      C        0.59670    0.62240    0.50090    1.000
    C35      C        0.37520    0.59360    0.46760    1.000
    H15      H        0.27080    0.55900    0.48380    1.000
    C36      C        0.31000    0.61680    0.40970    1.000
    C37      C        0.45940    0.67130    0.38730    1.000
    H16      H        0.41530    0.68740    0.34900    1.000
    C38      C        0.67370    0.70200    0.42130    1.000
    C39      C        0.74670    0.67590    0.47810    1.000
    H17      H        0.89560    0.69450    0.50040    1.000
    C40      C        0.09330    0.58090    0.37020    1.000
    O19      O        0.96700    0.53050    0.39125    1.000
    O20      O        0.05530    0.60270    0.31763    1.000
    N5       N        0.81750    0.75590    0.39370    1.000
    N6       N        0.98980    0.78680    0.42800    1.000
    C41      C        0.26360    0.90880    0.24840    1.000
    O21      O        0.05120    0.88830    0.22040    1.000
    O22      O        0.45580    0.93830    0.22651    1.000
    C42      C        0.29220    0.89740    0.31390    1.000
    C43      C        0.48950    0.93230    0.35020    1.000
    H18      H        0.60780    0.96310    0.33380    1.000
    C44      C        0.51130    0.92160    0.41060    1.000
    C45      C        0.34170    0.87340    0.43490    1.000
    H19      H        0.35970    0.86500    0.47530    1.000
    C46      C        0.14500    0.83760    0.39910    1.000
    C47      C        0.11830    0.85060    0.33860    1.000
    H20      H        0.98360    0.82790    0.31460    1.000
    C48      C        0.72020    0.95760    0.45040    1.000
    O23      O        0.86290    0.00480    0.42640    1.000
    H21      H        0.94100    0.01700    0.44300    1.000
    O24      O        0.75220    0.94120    0.50355    1.000
    Tm4      Tm       0.27715    0.06853    0.84598    1.000
    O25      O        0.58840    0.10990    0.91654    1.000
    O26      O        0.98960    0.06150    0.91175    1.000
    C49      C        0.82120    0.09560    0.93830    1.000
    C50      C        0.90330    0.12240    0.99910    1.000
    C51      C        0.12480    0.09360    0.03240    1.000
    H22      H        0.22920    0.05900    0.01620    1.000
    C52      C        0.19000    0.11680    0.09030    1.000
    C53      C        0.04060    0.17130    0.11270    1.000
    H23      H        0.08470    0.18740    0.15100    1.000
    C54      C        0.82630    0.20200    0.07870    1.000
    C55      C        0.75330    0.17590    0.02190    1.000
    H24      H        0.60440    0.19450    0.99960    1.000
    C56      C        0.40670    0.08090    0.12980    1.000
    O27      O        0.53300    0.03050    0.10875    1.000
    O28      O        0.44470    0.10270    0.18237    1.000
    N7       N        0.68250    0.25590    0.10630    1.000
    N8       N        0.51020    0.28680    0.07200    1.000
    C57      C        0.23640    0.40880    0.25160    1.000
    O29      O        0.44880    0.38830    0.27960    1.000
    O30      O        0.04420    0.43830    0.27349    1.000
    C58      C        0.20780    0.39740    0.18610    1.000
    C59      C        0.01050    0.43230    0.14980    1.000
    H25      H        0.89220    0.46310    0.16620    1.000
    C60      C        0.98870    0.42160    0.08940    1.000
    C61      C        0.15830    0.37340    0.06510    1.000
    H26      H        0.14030    0.36500    0.02470    1.000
    C62      C        0.35500    0.33760    0.10090    1.000
    C63      C        0.38170    0.35060    0.16140    1.000
    H27      H        0.51640    0.32790    0.18540    1.000
    C64      C        0.77980    0.45760    0.04960    1.000
    O31      O        0.63710    0.50480    0.07360    1.000
    H28      H        0.55900    0.51700    0.05700    1.000
    O32      O        0.74780    0.44120    0.99645    1.000
