# CIF file generated by openbabel 3.1.0, see https://openbabel.org
data_I
_chemical_name_common 'image0'
_cell_length_a 20.429
_cell_length_b 22.744
_cell_length_c 21.792
_cell_angle_alpha 90
_cell_angle_beta 108.783
_cell_angle_gamma 90
_space_group_name_H-M_alt 'P 1'
_space_group_name_Hall 'P 1'
loop_
    _symmetry_equiv_pos_as_xyz
    x,y,z
loop_
    _atom_site_label
    _atom_site_type_symbol
    _atom_site_fract_x
    _atom_site_fract_y
    _atom_site_fract_z
    _atom_site_occupancy
    N1       N        0.77220    0.31130    0.93510    1.000
    C1       C        0.74850    0.31290    0.87020    1.000
    H1       H        0.71830    0.28510    0.84270    1.000
    N2       N        0.77490    0.36070    0.85090    1.000
    N3       N        0.81490    0.38860    0.90390    1.000
    C2       C        0.81320    0.35810    0.95590    1.000
    H2       H        0.83700    0.36780    0.99990    1.000
    C3       C        0.76890    0.38460    0.78760    1.000
    H3       H        0.74880    0.42460    0.78350    1.000
    H4       H        0.73740    0.35960    0.75350    1.000
    C4       C        0.83860    0.38720    0.77800    1.000
    C5       C        0.86420    0.33600    0.75960    1.000
    H5       H        0.83820    0.30060    0.75400    1.000
    C6       C        0.92780    0.33650    0.74920    1.000
    H6       H        0.94530    0.30150    0.73660    1.000
    C7       C        0.96570    0.38820    0.75730    1.000
    C8       C        0.94010    0.43940    0.77580    1.000
    H7       H        0.96610    0.47470    0.78130    1.000
    C9       C        0.87660    0.43890    0.78610    1.000
    H8       H        0.85900    0.47390    0.79880    1.000
    N4       N        0.63710    0.25970    0.95460    1.000
    C10      C        0.59560    0.27310    0.99010    1.000
    H9       H        0.61000    0.27830    0.03580    1.000
    N5       N        0.53010    0.27780    0.94910    1.000
    N6       N        0.53100    0.26740    0.88820    1.000
    C11      C        0.59720    0.25620    0.89160    1.000
    H10      H        0.61290    0.24740    0.85610    1.000
    C12      C        0.46870    0.29160    0.96530    1.000
    H11      H        0.43600    0.31290    0.92840    1.000
    H12      H        0.48140    0.31840    0.00310    1.000
    C13      C        0.43180    0.23760    0.98110    1.000
    C14      C        0.36260    0.22770    0.94560    1.000
    H13      H        0.33990    0.25210    0.90970    1.000
    C15      C        0.32660    0.18190    0.96300    1.000
    H14      H        0.27940    0.17520    0.93880    1.000
    C16      C        0.35980    0.14610    0.01570    1.000
    C17      C        0.42900    0.15600    0.05120    1.000
    H15      H        0.45170    0.13160    0.08710    1.000
    C18      C        0.46500    0.20180    0.03380    1.000
    H16      H        0.51220    0.20850    0.05800    1.000
    N7       N        0.24990    0.82250    0.06470    1.000
    C19      C        0.21400    0.87260    0.04240    1.000
    H17      H        0.18580    0.87990    0.99900    1.000
    N8       N        0.22550    0.91040    0.09300    1.000
    N9       N        0.26840    0.88370    0.14660    1.000
    C20      C        0.28350    0.82940    0.12910    1.000
    H18      H        0.31250    0.80110    0.15700    1.000
    C21      C        0.19790    0.96800    0.09090    1.000
    H19      H        0.15060    0.96890    0.05940    1.000
    H20      H        0.19490    0.97820    0.13410    1.000
    C22      C        0.24220    0.01350    0.07150    1.000
    C23      C        0.28250    0.05210    0.11770    1.000
    H21      H        0.28330    0.04930    0.16140    1.000
    C24      C        0.32170    0.09460    0.09990    1.000
    H22      H        0.34930    0.12100    0.13150    1.000
    C25      C        0.32050    0.09860    0.03610    1.000
    C26      C        0.28010    0.06010    0.98990    1.000
    H23      H        0.27930    0.06280    0.94620    1.000
    C27      C        0.24100    0.01750    0.00770    1.000
    H24      H        0.21330    0.99110    0.97610    1.000
    N10      N        0.27220    0.81130    0.93510    1.000
    C28      C        0.24850    0.81290    0.87020    1.000
    H25      H        0.21830    0.78510    0.84270    1.000
    N11      N        0.27490    0.86070    0.85090    1.000
    N12      N        0.31490    0.88860    0.90390    1.000
    C29      C        0.31320    0.85810    0.95590    1.000
    H26      H        0.33700    0.86780    0.99990    1.000
    C30      C        0.26890    0.88460    0.78760    1.000
    H27      H        0.24880    0.92460    0.78350    1.000
    H28      H        0.23740    0.85960    0.75350    1.000
    C31      C        0.33860    0.88720    0.77800    1.000
    C32      C        0.36420    0.83600    0.75960    1.000
    H29      H        0.33820    0.80060    0.75400    1.000
    C33      C        0.42780    0.83650    0.74920    1.000
    H30      H        0.44530    0.80150    0.73660    1.000
    C34      C        0.46570    0.88820    0.75730    1.000
    C35      C        0.44010    0.93940    0.77580    1.000
    H31      H        0.46610    0.97470    0.78130    1.000
    C36      C        0.37660    0.93890    0.78610    1.000
    H32      H        0.35900    0.97390    0.79880    1.000
    N13      N        0.13710    0.75970    0.95460    1.000
    C37      C        0.09560    0.77310    0.99010    1.000
    H33      H        0.11000    0.77830    0.03580    1.000
    N14      N        0.03010    0.77780    0.94910    1.000
    N15      N        0.03100    0.76740    0.88820    1.000
    C38      C        0.09720    0.75620    0.89160    1.000
    H34      H        0.11290    0.74740    0.85610    1.000
    C39      C        0.96870    0.79160    0.96530    1.000
    H35      H        0.93600    0.81290    0.92840    1.000
    H36      H        0.98140    0.81840    0.00310    1.000
    C40      C        0.93180    0.73760    0.98110    1.000
    C41      C        0.86260    0.72770    0.94560    1.000
    H37      H        0.83990    0.75210    0.90970    1.000
    C42      C        0.82660    0.68190    0.96300    1.000
    H38      H        0.77940    0.67520    0.93880    1.000
    C43      C        0.85980    0.64610    0.01570    1.000
    C44      C        0.92900    0.65600    0.05120    1.000
    H39      H        0.95170    0.63160    0.08710    1.000
    C45      C        0.96500    0.70180    0.03380    1.000
    H40      H        0.01220    0.70850    0.05800    1.000
    N16      N        0.74990    0.32250    0.06470    1.000
    C46      C        0.71400    0.37260    0.04240    1.000
    H41      H        0.68580    0.37990    0.99900    1.000
    N17      N        0.72550    0.41040    0.09300    1.000
    N18      N        0.76840    0.38370    0.14660    1.000
    C47      C        0.78350    0.32940    0.12910    1.000
    H42      H        0.81250    0.30110    0.15700    1.000
    C48      C        0.69790    0.46800    0.09090    1.000
    H43      H        0.65060    0.46890    0.05940    1.000
    H44      H        0.69490    0.47820    0.13410    1.000
    C49      C        0.74220    0.51350    0.07150    1.000
    C50      C        0.78250    0.55210    0.11770    1.000
    H45      H        0.78330    0.54930    0.16140    1.000
    C51      C        0.82170    0.59460    0.09990    1.000
    H46      H        0.84930    0.62100    0.13150    1.000
    C52      C        0.82050    0.59860    0.03610    1.000
    C53      C        0.78010    0.56010    0.98990    1.000
    H47      H        0.77930    0.56280    0.94620    1.000
    C54      C        0.74100    0.51750    0.00770    1.000
    H48      H        0.71330    0.49110    0.97610    1.000
    N19      N        0.22780    0.31130    0.56490    1.000
    C55      C        0.25150    0.31290    0.62980    1.000
    H49      H        0.28170    0.28510    0.65730    1.000
    N20      N        0.22510    0.36070    0.64910    1.000
    N21      N        0.18510    0.38860    0.59610    1.000
    C56      C        0.18680    0.35810    0.54410    1.000
    H50      H        0.16300    0.36780    0.50010    1.000
    C57      C        0.23110    0.38460    0.71240    1.000
    H51      H        0.25120    0.42460    0.71650    1.000
    H52      H        0.26260    0.35960    0.74650    1.000
    C58      C        0.16140    0.38720    0.72200    1.000
    C59      C        0.13580    0.33600    0.74040    1.000
    H53      H        0.16180    0.30060    0.74600    1.000
    C60      C        0.07220    0.33650    0.75080    1.000
    H54      H        0.05470    0.30150    0.76340    1.000
    C61      C        0.03430    0.38820    0.74270    1.000
    C62      C        0.05990    0.43940    0.72420    1.000
    H55      H        0.03390    0.47470    0.71870    1.000
    C63      C        0.12340    0.43890    0.71390    1.000
    H56      H        0.14100    0.47390    0.70120    1.000
    N22      N        0.36290    0.25970    0.54540    1.000
    C64      C        0.40440    0.27310    0.50990    1.000
    H57      H        0.39000    0.27830    0.46420    1.000
    N23      N        0.46990    0.27780    0.55090    1.000
    N24      N        0.46900    0.26740    0.61180    1.000
    C65      C        0.40280    0.25620    0.60840    1.000
    H58      H        0.38710    0.24740    0.64390    1.000
    C66      C        0.53130    0.29160    0.53470    1.000
    H59      H        0.56400    0.31290    0.57160    1.000
    H60      H        0.51860    0.31840    0.49690    1.000
    C67      C        0.56820    0.23760    0.51890    1.000
    C68      C        0.63740    0.22770    0.55440    1.000
    H61      H        0.66010    0.25210    0.59030    1.000
    C69      C        0.67340    0.18190    0.53700    1.000
    H62      H        0.72060    0.17520    0.56120    1.000
    C70      C        0.64020    0.14610    0.48430    1.000
    C71      C        0.57100    0.15600    0.44880    1.000
    H63      H        0.54830    0.13160    0.41290    1.000
    C72      C        0.53500    0.20180    0.46620    1.000
    H64      H        0.48780    0.20850    0.44200    1.000
    N25      N        0.75010    0.82250    0.43530    1.000
    C73      C        0.78600    0.87260    0.45760    1.000
    H65      H        0.81420    0.87990    0.50100    1.000
    N26      N        0.77450    0.91040    0.40700    1.000
    N27      N        0.73160    0.88370    0.35340    1.000
    C74      C        0.71650    0.82940    0.37090    1.000
    H66      H        0.68750    0.80110    0.34300    1.000
    C75      C        0.80210    0.96800    0.40910    1.000
    H67      H        0.84940    0.96890    0.44060    1.000
    H68      H        0.80510    0.97820    0.36590    1.000
    C76      C        0.75780    0.01350    0.42850    1.000
    C77      C        0.71750    0.05210    0.38230    1.000
    H69      H        0.71670    0.04930    0.33860    1.000
    C78      C        0.67830    0.09460    0.40010    1.000
    H70      H        0.65070    0.12100    0.36850    1.000
    C79      C        0.67950    0.09860    0.46390    1.000
    C80      C        0.71990    0.06010    0.51010    1.000
    H71      H        0.72070    0.06280    0.55380    1.000
    C81      C        0.75900    0.01750    0.49230    1.000
    H72      H        0.78670    0.99110    0.52390    1.000
    N28      N        0.72780    0.81130    0.56490    1.000
    C82      C        0.75150    0.81290    0.62980    1.000
    H73      H        0.78170    0.78510    0.65730    1.000
    N29      N        0.72510    0.86070    0.64910    1.000
    N30      N        0.68510    0.88860    0.59610    1.000
    C83      C        0.68680    0.85810    0.54410    1.000
    H74      H        0.66300    0.86780    0.50010    1.000
    C84      C        0.73110    0.88460    0.71240    1.000
    H75      H        0.75120    0.92460    0.71650    1.000
    H76      H        0.76260    0.85960    0.74650    1.000
    C85      C        0.66140    0.88720    0.72200    1.000
    C86      C        0.63580    0.83600    0.74040    1.000
    H77      H        0.66180    0.80060    0.74600    1.000
    C87      C        0.57220    0.83650    0.75080    1.000
    H78      H        0.55470    0.80150    0.76340    1.000
    C88      C        0.53430    0.88820    0.74270    1.000
    C89      C        0.55990    0.93940    0.72420    1.000
    H79      H        0.53390    0.97470    0.71870    1.000
    C90      C        0.62340    0.93890    0.71390    1.000
    H80      H        0.64100    0.97390    0.70120    1.000
    N31      N        0.86290    0.75970    0.54540    1.000
    C91      C        0.90440    0.77310    0.50990    1.000
    H81      H        0.89000    0.77830    0.46420    1.000
    N32      N        0.96990    0.77780    0.55090    1.000
    N33      N        0.96900    0.76740    0.61180    1.000
    C92      C        0.90280    0.75620    0.60840    1.000
    H82      H        0.88710    0.74740    0.64390    1.000
    C93      C        0.03130    0.79160    0.53470    1.000
    H83      H        0.06400    0.81290    0.57160    1.000
    H84      H        0.01860    0.81840    0.49690    1.000
    C94      C        0.06820    0.73760    0.51890    1.000
    C95      C        0.13740    0.72770    0.55440    1.000
    H85      H        0.16010    0.75210    0.59030    1.000
    C96      C        0.17340    0.68190    0.53700    1.000
    H86      H        0.22060    0.67520    0.56120    1.000
    C97      C        0.14020    0.64610    0.48430    1.000
    C98      C        0.07100    0.65600    0.44880    1.000
    H87      H        0.04830    0.63160    0.41290    1.000
    C99      C        0.03500    0.70180    0.46620    1.000
    H88      H        0.98780    0.70850    0.44200    1.000
    N34      N        0.25010    0.32250    0.43530    1.000
    C100     C        0.28600    0.37260    0.45760    1.000
    H89      H        0.31420    0.37990    0.50100    1.000
    N35      N        0.27450    0.41040    0.40700    1.000
    N36      N        0.23160    0.38370    0.35340    1.000
    C101     C        0.21650    0.32940    0.37090    1.000
    H90      H        0.18750    0.30110    0.34300    1.000
    C102     C        0.30210    0.46800    0.40910    1.000
    H91      H        0.34940    0.46890    0.44060    1.000
    H92      H        0.30510    0.47820    0.36590    1.000
    C103     C        0.25780    0.51350    0.42850    1.000
    C104     C        0.21750    0.55210    0.38230    1.000
    H93      H        0.21670    0.54930    0.33860    1.000
    C105     C        0.17830    0.59460    0.40010    1.000
    H94      H        0.15070    0.62100    0.36850    1.000
    C106     C        0.17950    0.59860    0.46390    1.000
    C107     C        0.21990    0.56010    0.51010    1.000
    H95      H        0.22070    0.56280    0.55380    1.000
    C108     C        0.25900    0.51750    0.49230    1.000
    H96      H        0.28670    0.49110    0.52390    1.000
    N37      N        0.22780    0.68870    0.06490    1.000
    C109     C        0.25150    0.68710    0.12980    1.000
    H97      H        0.28170    0.71490    0.15730    1.000
    N38      N        0.22510    0.63930    0.14910    1.000
    N39      N        0.18510    0.61140    0.09610    1.000
    C110     C        0.18680    0.64190    0.04410    1.000
    H98      H        0.16300    0.63220    0.00010    1.000
    C111     C        0.23110    0.61540    0.21240    1.000
    H99      H        0.25120    0.57540    0.21650    1.000
    H100     H        0.26260    0.64040    0.24650    1.000
    C112     C        0.16140    0.61280    0.22200    1.000
    C113     C        0.13580    0.66400    0.24040    1.000
    H101     H        0.16180    0.69940    0.24600    1.000
    C114     C        0.07220    0.66350    0.25080    1.000
    H102     H        0.05470    0.69850    0.26340    1.000
    C115     C        0.03430    0.61180    0.24270    1.000
    C116     C        0.05990    0.56060    0.22420    1.000
    H103     H        0.03390    0.52530    0.21870    1.000
    C117     C        0.12340    0.56110    0.21390    1.000
    H104     H        0.14100    0.52610    0.20120    1.000
    N40      N        0.36290    0.74030    0.04540    1.000
    C118     C        0.40440    0.72690    0.00990    1.000
    H105     H        0.39000    0.72170    0.96420    1.000
    N41      N        0.46990    0.72220    0.05090    1.000
    N42      N        0.46900    0.73260    0.11180    1.000
    C119     C        0.40280    0.74380    0.10840    1.000
    H106     H        0.38710    0.75260    0.14390    1.000
    C120     C        0.53130    0.70840    0.03470    1.000
    H107     H        0.56400    0.68710    0.07160    1.000
    H108     H        0.51860    0.68160    0.99690    1.000
    C121     C        0.56820    0.76240    0.01890    1.000
    C122     C        0.63740    0.77230    0.05440    1.000
    H109     H        0.66010    0.74790    0.09030    1.000
    C123     C        0.67340    0.81810    0.03700    1.000
    H110     H        0.72060    0.82480    0.06120    1.000
    C124     C        0.64020    0.85390    0.98430    1.000
    C125     C        0.57100    0.84400    0.94880    1.000
    H111     H        0.54830    0.86840    0.91290    1.000
    C126     C        0.53500    0.79820    0.96620    1.000
    H112     H        0.48780    0.79150    0.94200    1.000
    N43      N        0.75010    0.17750    0.93530    1.000
    C127     C        0.78600    0.12740    0.95760    1.000
    H113     H        0.81420    0.12010    0.00100    1.000
    N44      N        0.77450    0.08960    0.90700    1.000
    N45      N        0.73160    0.11630    0.85340    1.000
    C128     C        0.71650    0.17060    0.87090    1.000
    H114     H        0.68750    0.19890    0.84300    1.000
    C129     C        0.80210    0.03200    0.90910    1.000
    H115     H        0.84940    0.03110    0.94060    1.000
    H116     H        0.80510    0.02180    0.86590    1.000
    C130     C        0.75780    0.98650    0.92850    1.000
    C131     C        0.71750    0.94790    0.88230    1.000
    H117     H        0.71670    0.95070    0.83860    1.000
    C132     C        0.67830    0.90540    0.90010    1.000
    H118     H        0.65070    0.87900    0.86850    1.000
    C133     C        0.67950    0.90140    0.96390    1.000
    C134     C        0.71990    0.93990    0.01010    1.000
    H119     H        0.72070    0.93720    0.05380    1.000
    C135     C        0.75900    0.98250    0.99230    1.000
    H120     H        0.78670    0.00890    0.02390    1.000
    N46      N        0.72780    0.18870    0.06490    1.000
    C136     C        0.75150    0.18710    0.12980    1.000
    H121     H        0.78170    0.21490    0.15730    1.000
    N47      N        0.72510    0.13930    0.14910    1.000
    N48      N        0.68510    0.11140    0.09610    1.000
    C137     C        0.68680    0.14190    0.04410    1.000
    H122     H        0.66300    0.13220    0.00010    1.000
    C138     C        0.73110    0.11540    0.21240    1.000
    H123     H        0.75120    0.07540    0.21650    1.000
    H124     H        0.76260    0.14040    0.24650    1.000
    C139     C        0.66140    0.11280    0.22200    1.000
    C140     C        0.63580    0.16400    0.24040    1.000
    H125     H        0.66180    0.19940    0.24600    1.000
    C141     C        0.57220    0.16350    0.25080    1.000
    H126     H        0.55470    0.19850    0.26340    1.000
    C142     C        0.53430    0.11180    0.24270    1.000
    C143     C        0.55990    0.06060    0.22420    1.000
    H127     H        0.53390    0.02530    0.21870    1.000
    C144     C        0.62340    0.06110    0.21390    1.000
    H128     H        0.64100    0.02610    0.20120    1.000
    N49      N        0.86290    0.24030    0.04540    1.000
    C145     C        0.90440    0.22690    0.00990    1.000
    H129     H        0.89000    0.22170    0.96420    1.000
    N50      N        0.96990    0.22220    0.05090    1.000
    N51      N        0.96900    0.23260    0.11180    1.000
    C146     C        0.90280    0.24380    0.10840    1.000
    H130     H        0.88710    0.25260    0.14390    1.000
    C147     C        0.03130    0.20840    0.03470    1.000
    H131     H        0.06400    0.18710    0.07160    1.000
    H132     H        0.01860    0.18160    0.99690    1.000
    C148     C        0.06820    0.26240    0.01890    1.000
    C149     C        0.13740    0.27230    0.05440    1.000
    H133     H        0.16010    0.24790    0.09030    1.000
    C150     C        0.17340    0.31810    0.03700    1.000
    H134     H        0.22060    0.32480    0.06120    1.000
    C151     C        0.14020    0.35390    0.98430    1.000
    C152     C        0.07100    0.34400    0.94880    1.000
    H135     H        0.04830    0.36840    0.91290    1.000
    C153     C        0.03500    0.29820    0.96620    1.000
    H136     H        0.98780    0.29150    0.94200    1.000
    N52      N        0.25010    0.67750    0.93530    1.000
    C154     C        0.28600    0.62740    0.95760    1.000
    H137     H        0.31420    0.62010    0.00100    1.000
    N53      N        0.27450    0.58960    0.90700    1.000
    N54      N        0.23160    0.61630    0.85340    1.000
    C155     C        0.21650    0.67060    0.87090    1.000
    H138     H        0.18750    0.69890    0.84300    1.000
    C156     C        0.30210    0.53200    0.90910    1.000
    H139     H        0.34940    0.53110    0.94060    1.000
    H140     H        0.30510    0.52180    0.86590    1.000
    C157     C        0.25780    0.48650    0.92850    1.000
    C158     C        0.21750    0.44790    0.88230    1.000
    H141     H        0.21670    0.45070    0.83860    1.000
    C159     C        0.17830    0.40540    0.90010    1.000
    H142     H        0.15070    0.37900    0.86850    1.000
    C160     C        0.17950    0.40140    0.96390    1.000
    C161     C        0.21990    0.43990    0.01010    1.000
    H143     H        0.22070    0.43720    0.05380    1.000
    C162     C        0.25900    0.48250    0.99230    1.000
    H144     H        0.28670    0.50890    0.02390    1.000
    N55      N        0.77220    0.68870    0.43510    1.000
    C163     C        0.74850    0.68710    0.37020    1.000
    H145     H        0.71830    0.71490    0.34270    1.000
    N56      N        0.77490    0.63930    0.35090    1.000
    N57      N        0.81490    0.61140    0.40390    1.000
    C164     C        0.81320    0.64190    0.45590    1.000
    H146     H        0.83700    0.63220    0.49990    1.000
    C165     C        0.76890    0.61540    0.28760    1.000
    H147     H        0.74880    0.57540    0.28350    1.000
    H148     H        0.73740    0.64040    0.25350    1.000
    C166     C        0.83860    0.61280    0.27800    1.000
    C167     C        0.86420    0.66400    0.25960    1.000
    H149     H        0.83820    0.69940    0.25400    1.000
    C168     C        0.92780    0.66350    0.24920    1.000
    H150     H        0.94530    0.69850    0.23660    1.000
    C169     C        0.96570    0.61180    0.25730    1.000
    C170     C        0.94010    0.56060    0.27580    1.000
    H151     H        0.96610    0.52530    0.28130    1.000
    C171     C        0.87660    0.56110    0.28610    1.000
    H152     H        0.85900    0.52610    0.29880    1.000
    N58      N        0.63710    0.74030    0.45460    1.000
    C172     C        0.59560    0.72690    0.49010    1.000
    H153     H        0.61000    0.72170    0.53580    1.000
    N59      N        0.53010    0.72220    0.44910    1.000
    N60      N        0.53100    0.73260    0.38820    1.000
    C173     C        0.59720    0.74380    0.39160    1.000
    H154     H        0.61290    0.75260    0.35610    1.000
    C174     C        0.46870    0.70840    0.46530    1.000
    H155     H        0.43600    0.68710    0.42840    1.000
    H156     H        0.48140    0.68160    0.50310    1.000
    C175     C        0.43180    0.76240    0.48110    1.000
    C176     C        0.36260    0.77230    0.44560    1.000
    H157     H        0.33990    0.74790    0.40970    1.000
    C177     C        0.32660    0.81810    0.46300    1.000
    H158     H        0.27940    0.82480    0.43880    1.000
    C178     C        0.35980    0.85390    0.51570    1.000
    C179     C        0.42900    0.84400    0.55120    1.000
    H159     H        0.45170    0.86840    0.58710    1.000
    C180     C        0.46500    0.79820    0.53380    1.000
    H160     H        0.51220    0.79150    0.55800    1.000
    N61      N        0.24990    0.17750    0.56470    1.000
    C181     C        0.21400    0.12740    0.54240    1.000
    H161     H        0.18580    0.12010    0.49900    1.000
    N62      N        0.22550    0.08960    0.59300    1.000
    N63      N        0.26840    0.11630    0.64660    1.000
    C182     C        0.28350    0.17060    0.62910    1.000
    H162     H        0.31250    0.19890    0.65700    1.000
    C183     C        0.19790    0.03200    0.59090    1.000
    H163     H        0.15060    0.03110    0.55940    1.000
    H164     H        0.19490    0.02180    0.63410    1.000
    C184     C        0.24220    0.98650    0.57150    1.000
    C185     C        0.28250    0.94790    0.61770    1.000
    H165     H        0.28330    0.95070    0.66140    1.000
    C186     C        0.32170    0.90540    0.59990    1.000
    H166     H        0.34930    0.87900    0.63150    1.000
    C187     C        0.32050    0.90140    0.53610    1.000
    C188     C        0.28010    0.93990    0.48990    1.000
    H167     H        0.27930    0.93720    0.44620    1.000
    C189     C        0.24100    0.98250    0.50770    1.000
    H168     H        0.21330    0.00890    0.47610    1.000
    N64      N        0.27220    0.18870    0.43510    1.000
    C190     C        0.24850    0.18710    0.37020    1.000
    H169     H        0.21830    0.21490    0.34270    1.000
    N65      N        0.27490    0.13930    0.35090    1.000
    N66      N        0.31490    0.11140    0.40390    1.000
    C191     C        0.31320    0.14190    0.45590    1.000
    H170     H        0.33700    0.13220    0.49990    1.000
    C192     C        0.26890    0.11540    0.28760    1.000
    H171     H        0.24880    0.07540    0.28350    1.000
    H172     H        0.23740    0.14040    0.25350    1.000
    C193     C        0.33860    0.11280    0.27800    1.000
    C194     C        0.36420    0.16400    0.25960    1.000
    H173     H        0.33820    0.19940    0.25400    1.000
    C195     C        0.42780    0.16350    0.24920    1.000
    H174     H        0.44530    0.19850    0.23660    1.000
    C196     C        0.46570    0.11180    0.25730    1.000
    C197     C        0.44010    0.06060    0.27580    1.000
    H175     H        0.46610    0.02530    0.28130    1.000
    C198     C        0.37660    0.06110    0.28610    1.000
    H176     H        0.35900    0.02610    0.29880    1.000
    N67      N        0.13710    0.24030    0.45460    1.000
    C199     C        0.09560    0.22690    0.49010    1.000
    H177     H        0.11000    0.22170    0.53580    1.000
    N68      N        0.03010    0.22220    0.44910    1.000
    N69      N        0.03100    0.23260    0.38820    1.000
    C200     C        0.09720    0.24380    0.39160    1.000
    H178     H        0.11290    0.25260    0.35610    1.000
    C201     C        0.96870    0.20840    0.46530    1.000
    H179     H        0.93600    0.18710    0.42840    1.000
    H180     H        0.98140    0.18160    0.50310    1.000
    C202     C        0.93180    0.26240    0.48110    1.000
    C203     C        0.86260    0.27230    0.44560    1.000
    H181     H        0.83990    0.24790    0.40970    1.000
    C204     C        0.82660    0.31810    0.46300    1.000
    H182     H        0.77940    0.32480    0.43880    1.000
    C205     C        0.85980    0.35390    0.51570    1.000
    C206     C        0.92900    0.34400    0.55120    1.000
    H183     H        0.95170    0.36840    0.58710    1.000
    C207     C        0.96500    0.29820    0.53380    1.000
    H184     H        0.01220    0.29150    0.55800    1.000
    N70      N        0.74990    0.67750    0.56470    1.000
    C208     C        0.71400    0.62740    0.54240    1.000
    H185     H        0.68580    0.62010    0.49900    1.000
    N71      N        0.72550    0.58960    0.59300    1.000
    N72      N        0.76840    0.61630    0.64660    1.000
    C209     C        0.78350    0.67060    0.62910    1.000
    H186     H        0.81250    0.69890    0.65700    1.000
    C210     C        0.69790    0.53200    0.59090    1.000
    H187     H        0.65060    0.53110    0.55940    1.000
    H188     H        0.69490    0.52180    0.63410    1.000
    C211     C        0.74220    0.48650    0.57150    1.000
    C212     C        0.78250    0.44790    0.61770    1.000
    H189     H        0.78330    0.45070    0.66140    1.000
    C213     C        0.82170    0.40540    0.59990    1.000
    H190     H        0.84930    0.37900    0.63150    1.000
    C214     C        0.82050    0.40140    0.53610    1.000
    C215     C        0.78010    0.43990    0.48990    1.000
    H191     H        0.77930    0.43720    0.44620    1.000
    C216     C        0.74100    0.48250    0.50770    1.000
    H192     H        0.71330    0.50890    0.47610    1.000
    Co1      Co       0.75000    0.25000    0.00000    1.000
    Co2      Co       0.25000    0.25000    0.50000    1.000
    Co3      Co       0.25000    0.75000    0.00000    1.000
    Co4      Co       0.75000    0.75000    0.50000    1.000
