# CIF file generated by openbabel 3.1.0, see https://openbabel.org
data_I
_chemical_name_common 'image0'
_cell_length_a 9.4293
_cell_length_b 10.2259
_cell_length_c 17.1533
_cell_angle_alpha 91.634
_cell_angle_beta 99.933
_cell_angle_gamma 93.062
_space_group_name_H-M_alt 'P 1'
_space_group_name_Hall 'P 1'
loop_
    _symmetry_equiv_pos_as_xyz
    x,y,z
loop_
    _atom_site_label
    _atom_site_type_symbol
    _atom_site_fract_x
    _atom_site_fract_y
    _atom_site_fract_z
    _atom_site_occupancy
    Co1      Co       0.80248    0.17890    0.70849    1.000
    Co2      Co       0.82172    0.39279    0.86878    1.000
    C1       C        0.72940    0.58070    0.64400    1.000
    C2       C        0.74450    0.70990    0.67530    1.000
    H1       H        0.77040    0.72660    0.72960    1.000
    C3       C        0.72040    0.81220    0.62440    1.000
    C4       C        0.68410    0.78830    0.54310    1.000
    H2       H        0.66640    0.85730    0.50930    1.000
    C5       C        0.67450    0.65960    0.51300    1.000
    C6       C        0.69510    0.55690    0.56310    1.000
    H3       H        0.68600    0.47130    0.54230    1.000
    C7       C        0.76160    0.47040    0.69930    1.000
    C8       C        0.74460    0.95080    0.65740    1.000
    C9       C        0.65010    0.71850    0.37700    1.000
    H4       H        0.58870    0.78760    0.38750    1.000
    H5       H        0.61100    0.67930    0.32500    1.000
    C10      C        0.96640    0.91370    0.39080    1.000
    H6       H        0.02360    0.99030    0.40550    1.000
    C11      C        0.90140    0.72690    0.34470    1.000
    H7       H        0.89690    0.64370    0.32070    1.000
    C12      C        0.17320    0.20020    0.83180    1.000
    C13      C        0.31180    0.25100    0.83260    1.000
    H8       H        0.33570    0.33980    0.84380    1.000
    C14      C        0.41580    0.16680    0.81630    1.000
    C15      C        0.37980    0.03470    0.80300    1.000
    H9       H        0.44820    0.97930    0.79030    1.000
    C16      C        0.24440    0.98370    0.80830    1.000
    C17      C        0.13820    0.06730    0.81970    1.000
    H10      H        0.04420    0.03440    0.81920    1.000
    C18      C        0.05460    0.28800    0.84220    1.000
    C19      C        0.56690    0.21920    0.81000    1.000
    C20      C        0.09690    0.78500    0.81850    1.000
    H11      H        0.08370    0.69720    0.79450    1.000
    H12      H        0.01380    0.83280    0.79690    1.000
    C21      C        0.11290    0.84030    0.02030    1.000
    H13      H        0.11140    0.89310    0.06510    1.000
    C22      C        0.13530    0.67780    0.95080    1.000
    H14      H        0.15050    0.59400    0.93280    1.000
    N1       N        0.79490    0.77590    0.37600    1.000
    N2       N        0.83580    0.89870    0.40620    1.000
    N3       N        0.01450    0.81120    0.35210    1.000
    N4       N        0.10590    0.77770    0.90380    1.000
    N5       N        0.08870    0.88580    0.94900    1.000
    N6       N        0.14020    0.71160    0.02510    1.000
    O1       O        0.74570    0.35650    0.66886    1.000
    O2       O        0.80330    0.50090    0.77140    1.000
    O3       O        0.82320    0.97200    0.72406    1.000
    O4       O        0.69270    0.04300    0.61660    1.000
    O5       O        0.64670    0.62290    0.43378    1.000
    O6       O        0.92580    0.24530    0.81723    1.000
    O7       O        0.08180    0.39710    0.87670    1.000
    O8       O        0.61170    0.32490    0.84750    1.000
    O9       O        0.63170    0.15290    0.76850    1.000
    O10      O        0.22330    0.84840    0.79930    1.000
    Co3      Co       0.19752    0.82110    0.29151    1.000
    Co4      Co       0.17828    0.60721    0.13122    1.000
    C23      C        0.27060    0.41930    0.35600    1.000
    C24      C        0.25550    0.29010    0.32470    1.000
    H15      H        0.22960    0.27340    0.27040    1.000
    C25      C        0.27960    0.18780    0.37560    1.000
    C26      C        0.31590    0.21170    0.45690    1.000
    H16      H        0.33360    0.14270    0.49070    1.000
    C27      C        0.32550    0.34040    0.48700    1.000
    C28      C        0.30490    0.44310    0.43690    1.000
    H17      H        0.31400    0.52870    0.45770    1.000
    C29      C        0.23840    0.52960    0.30070    1.000
    C30      C        0.25540    0.04920    0.34260    1.000
    C31      C        0.34990    0.28150    0.62300    1.000
    H18      H        0.41130    0.21240    0.61250    1.000
    H19      H        0.38900    0.32070    0.67500    1.000
    C32      C        0.03360    0.08630    0.60920    1.000
    H20      H        0.97640    0.00970    0.59450    1.000
    C33      C        0.09860    0.27310    0.65530    1.000
    H21      H        0.10310    0.35630    0.67930    1.000
    C34      C        0.82680    0.79980    0.16820    1.000
    C35      C        0.68820    0.74900    0.16740    1.000
    H22      H        0.66430    0.66020    0.15620    1.000
    C36      C        0.58420    0.83320    0.18370    1.000
    C37      C        0.62020    0.96530    0.19700    1.000
    H23      H        0.55180    0.02070    0.20970    1.000
    C38      C        0.75560    0.01630    0.19170    1.000
    C39      C        0.86180    0.93270    0.18030    1.000
    H24      H        0.95580    0.96560    0.18080    1.000
    C40      C        0.94540    0.71200    0.15780    1.000
    C41      C        0.43310    0.78080    0.19000    1.000
    C42      C        0.90310    0.21500    0.18150    1.000
    H25      H        0.91630    0.30280    0.20550    1.000
    H26      H        0.98620    0.16720    0.20310    1.000
    C43      C        0.88710    0.15970    0.97970    1.000
    H27      H        0.88860    0.10690    0.93490    1.000
    C44      C        0.86470    0.32220    0.04920    1.000
    H28      H        0.84950    0.40600    0.06720    1.000
    N7       N        0.20510    0.22410    0.62400    1.000
    N8       N        0.16420    0.10130    0.59380    1.000
    N9       N        0.98550    0.18880    0.64790    1.000
    N10      N        0.89410    0.22230    0.09620    1.000
    N11      N        0.91130    0.11420    0.05100    1.000
    N12      N        0.85980    0.28840    0.97490    1.000
    O11      O        0.25430    0.64350    0.33114    1.000
    O12      O        0.19670    0.49910    0.22860    1.000
    O13      O        0.17680    0.02800    0.27594    1.000
    O14      O        0.30730    0.95700    0.38340    1.000
    O15      O        0.35330    0.37710    0.56622    1.000
    O16      O        0.07420    0.75470    0.18277    1.000
    O17      O        0.91820    0.60290    0.12330    1.000
    O18      O        0.38830    0.67510    0.15250    1.000
    O19      O        0.36830    0.84710    0.23150    1.000
    O20      O        0.77670    0.15160    0.20070    1.000
