# CIF file generated by openbabel 3.1.0, see https://openbabel.org
data_I
_chemical_name_common 'image0'
_cell_length_a 15.439
_cell_length_b 10.758
_cell_length_c 28.81
_cell_angle_alpha 90
_cell_angle_beta 90.73
_cell_angle_gamma 90
_space_group_name_H-M_alt 'P 1'
_space_group_name_Hall 'P 1'
loop_
    _symmetry_equiv_pos_as_xyz
    x,y,z
loop_
    _atom_site_label
    _atom_site_type_symbol
    _atom_site_fract_x
    _atom_site_fract_y
    _atom_site_fract_z
    _atom_site_occupancy
    C1       C        0.50280    0.27200    0.47150    1.000
    H1       H        0.46710    0.34140    0.46920    1.000
    C2       C        0.46860    0.16610    0.48760    1.000
    H2       H        0.41100    0.16420    0.49680    1.000
    C3       C        0.51850    0.05980    0.49070    1.000
    C4       C        0.60280    0.07030    0.47720    1.000
    H3       H        0.63910    0.00130    0.47870    1.000
    C5       C        0.63390    0.17980    0.46190    1.000
    H4       H        0.69160    0.18380    0.45310    1.000
    C6       C        0.52450    0.63670    0.42020    1.000
    C7       C        0.50000    0.75980    0.40000    1.000
    C8       C        0.55850    0.82790    0.37470    1.000
    H5       H        0.61310    0.79510    0.36900    1.000
    C9       C        0.53730    0.94360    0.35770    1.000
    C10      C        0.45760    0.99390    0.36730    1.000
    H6       H        0.44400    0.07380    0.35720    1.000
    C11      C        0.39730    0.92560    0.39190    1.000
    C12      C        0.41820    0.80680    0.40740    1.000
    H7       H        0.37710    0.75910    0.42260    1.000
    C13      C        0.67370    0.03200    0.33650    1.000
    C14      C        0.71930    0.10630    0.30170    1.000
    C15      C        0.79400    0.16600    0.31740    1.000
    H8       H        0.81150    0.15840    0.34830    1.000
    C16      C        0.84240    0.23700    0.28690    1.000
    H9       H        0.89240    0.27700    0.29740    1.000
    C17      C        0.81620    0.24800    0.24080    1.000
    H10      H        0.84870    0.29590    0.22040    1.000
    C18      C        0.74160    0.18870    0.22510    1.000
    H11      H        0.72400    0.19620    0.19420    1.000
    C19      C        0.69310    0.11760    0.25560    1.000
    H12      H        0.64320    0.07760    0.24510    1.000
    N1       N        0.58540    0.28350    0.45860    1.000
    N2       N        0.59830    0.01240    0.33130    1.000
    C20      C        0.31030    0.97930    0.40440    1.000
    O1       O        0.25750    0.90610    0.42009    1.000
    O2       O        0.60500    0.61590    0.42260    1.000
    O3       O        0.47030    0.56470    0.43300    1.000
    O4       O        0.71170    0.98670    0.36960    1.000
    O5       O        0.29940    0.09180    0.39650    1.000
    Zn1      Zn       0.63857    0.44552    0.43449    1.000
    O6       O        0.53450    0.05510    0.26830    1.000
    C21      C        0.60100    0.05790    0.29180    1.000
    C22      C        0.68100    0.12160    0.27430    1.000
    C23      C        0.69090    0.13290    0.22660    1.000
    H13      H        0.64970    0.09910    0.20640    1.000
    C24      C        0.76240    0.19500    0.20900    1.000
    H14      H        0.76900    0.20220    0.17710    1.000
    C25      C        0.82400    0.24500    0.23910    1.000
    H15      H        0.87190    0.28650    0.22740    1.000
    C26      C        0.81410    0.23400    0.28680    1.000
    H16      H        0.85540    0.26770    0.30700    1.000
    C27      C        0.74260    0.17210    0.30440    1.000
    H17      H        0.73600    0.16460    0.33630    1.000
    H18      H        0.57640    0.04720    0.30620    1.000
    H19      H        0.64490    0.02830    0.34660    1.000
    C28      C        0.00280    0.77200    0.47150    1.000
    H20      H        0.96710    0.84140    0.46920    1.000
    C29      C        0.96860    0.66610    0.48760    1.000
    H21      H        0.91100    0.66420    0.49680    1.000
    C30      C        0.01850    0.55980    0.49070    1.000
    C31      C        0.10280    0.57030    0.47720    1.000
    H22      H        0.13910    0.50130    0.47870    1.000
    C32      C        0.13390    0.67980    0.46190    1.000
    H23      H        0.19160    0.68380    0.45310    1.000
    C33      C        0.02450    0.13670    0.42020    1.000
    C34      C        0.00000    0.25980    0.40000    1.000
    C35      C        0.05850    0.32790    0.37470    1.000
    H24      H        0.11310    0.29510    0.36900    1.000
    C36      C        0.03730    0.44360    0.35770    1.000
    C37      C        0.95760    0.49390    0.36730    1.000
    H25      H        0.94400    0.57380    0.35720    1.000
    C38      C        0.89730    0.42560    0.39190    1.000
    C39      C        0.91820    0.30680    0.40740    1.000
    H26      H        0.87710    0.25910    0.42260    1.000
    C40      C        0.17370    0.53200    0.33650    1.000
    C41      C        0.21930    0.60630    0.30170    1.000
    C42      C        0.29400    0.66600    0.31740    1.000
    H27      H        0.31150    0.65840    0.34830    1.000
    C43      C        0.34240    0.73700    0.28690    1.000
    H28      H        0.39240    0.77700    0.29740    1.000
    C44      C        0.31620    0.74800    0.24080    1.000
    H29      H        0.34870    0.79590    0.22040    1.000
    C45      C        0.24160    0.68870    0.22510    1.000
    H30      H        0.22400    0.69620    0.19420    1.000
    C46      C        0.19310    0.61760    0.25560    1.000
    H31      H        0.14320    0.57760    0.24510    1.000
    N3       N        0.08540    0.78350    0.45860    1.000
    N4       N        0.09830    0.51240    0.33130    1.000
    C47      C        0.81030    0.47930    0.40440    1.000
    O7       O        0.75750    0.40610    0.42009    1.000
    O8       O        0.10500    0.11590    0.42260    1.000
    O9       O        0.97030    0.06470    0.43300    1.000
    O10      O        0.21170    0.48670    0.36960    1.000
    O11      O        0.79940    0.59180    0.39650    1.000
    Zn2      Zn       0.13857    0.94552    0.43449    1.000
    O12      O        0.03450    0.55510    0.26830    1.000
    C48      C        0.10100    0.55790    0.29180    1.000
    C49      C        0.18100    0.62160    0.27430    1.000
    C50      C        0.19090    0.63290    0.22660    1.000
    H32      H        0.14970    0.59910    0.20640    1.000
    C51      C        0.26240    0.69500    0.20900    1.000
    H33      H        0.26900    0.70220    0.17710    1.000
    C52      C        0.32400    0.74500    0.23910    1.000
    H34      H        0.37190    0.78650    0.22740    1.000
    C53      C        0.31410    0.73400    0.28680    1.000
    H35      H        0.35540    0.76770    0.30700    1.000
    C54      C        0.24260    0.67210    0.30440    1.000
    H36      H        0.23600    0.66460    0.33630    1.000
    H37      H        0.07640    0.54720    0.30620    1.000
    H38      H        0.14490    0.52830    0.34660    1.000
    C55      C        0.49720    0.27200    0.02850    1.000
    H39      H        0.53290    0.34140    0.03080    1.000
    C56      C        0.53140    0.16610    0.01240    1.000
    H40      H        0.58900    0.16420    0.00320    1.000
    C57      C        0.48150    0.05980    0.00930    1.000
    C58      C        0.39720    0.07030    0.02280    1.000
    H41      H        0.36090    0.00130    0.02130    1.000
    C59      C        0.36610    0.17980    0.03810    1.000
    H42      H        0.30840    0.18380    0.04690    1.000
    C60      C        0.47550    0.63670    0.07980    1.000
    C61      C        0.50000    0.75980    0.10000    1.000
    C62      C        0.44150    0.82790    0.12530    1.000
    H43      H        0.38690    0.79510    0.13100    1.000
    C63      C        0.46270    0.94360    0.14230    1.000
    C64      C        0.54240    0.99390    0.13270    1.000
    H44      H        0.55600    0.07380    0.14280    1.000
    C65      C        0.60270    0.92560    0.10810    1.000
    C66      C        0.58180    0.80680    0.09260    1.000
    H45      H        0.62290    0.75910    0.07740    1.000
    C67      C        0.32630    0.03200    0.16350    1.000
    C68      C        0.28070    0.10630    0.19830    1.000
    C69      C        0.20600    0.16600    0.18260    1.000
    H46      H        0.18850    0.15840    0.15170    1.000
    C70      C        0.15760    0.23700    0.21310    1.000
    H47      H        0.10760    0.27700    0.20260    1.000
    C71      C        0.18380    0.24800    0.25920    1.000
    H48      H        0.15130    0.29590    0.27960    1.000
    C72      C        0.25840    0.18870    0.27490    1.000
    H49      H        0.27600    0.19620    0.30580    1.000
    C73      C        0.30690    0.11760    0.24440    1.000
    H50      H        0.35680    0.07760    0.25490    1.000
    N5       N        0.41460    0.28350    0.04140    1.000
    N6       N        0.40170    0.01240    0.16870    1.000
    C74      C        0.68970    0.97930    0.09560    1.000
    O13      O        0.74250    0.90610    0.07991    1.000
    O14      O        0.39500    0.61590    0.07740    1.000
    O15      O        0.52970    0.56470    0.06700    1.000
    O16      O        0.28830    0.98670    0.13040    1.000
    O17      O        0.70060    0.09180    0.10350    1.000
    Zn3      Zn       0.36143    0.44552    0.06551    1.000
    O18      O        0.46550    0.05510    0.23170    1.000
    C75      C        0.39900    0.05790    0.20820    1.000
    C76      C        0.31900    0.12160    0.22570    1.000
    C77      C        0.30910    0.13290    0.27340    1.000
    H51      H        0.35030    0.09910    0.29360    1.000
    C78      C        0.23760    0.19500    0.29100    1.000
    H52      H        0.23100    0.20220    0.32290    1.000
    C79      C        0.17600    0.24500    0.26090    1.000
    H53      H        0.12810    0.28650    0.27260    1.000
    C80      C        0.18590    0.23400    0.21320    1.000
    H54      H        0.14460    0.26770    0.19300    1.000
    C81      C        0.25740    0.17210    0.19560    1.000
    H55      H        0.26400    0.16460    0.16370    1.000
    H56      H        0.42360    0.04720    0.19380    1.000
    H57      H        0.35510    0.02830    0.15340    1.000
    C82      C        0.99720    0.77200    0.02850    1.000
    H58      H        0.03290    0.84140    0.03080    1.000
    C83      C        0.03140    0.66610    0.01240    1.000
    H59      H        0.08900    0.66420    0.00320    1.000
    C84      C        0.98150    0.55980    0.00930    1.000
    C85      C        0.89720    0.57030    0.02280    1.000
    H60      H        0.86090    0.50130    0.02130    1.000
    C86      C        0.86610    0.67980    0.03810    1.000
    H61      H        0.80840    0.68380    0.04690    1.000
    C87      C        0.97550    0.13670    0.07980    1.000
    C88      C        0.00000    0.25980    0.10000    1.000
    C89      C        0.94150    0.32790    0.12530    1.000
    H62      H        0.88690    0.29510    0.13100    1.000
    C90      C        0.96270    0.44360    0.14230    1.000
    C91      C        0.04240    0.49390    0.13270    1.000
    H63      H        0.05600    0.57380    0.14280    1.000
    C92      C        0.10270    0.42560    0.10810    1.000
    C93      C        0.08180    0.30680    0.09260    1.000
    H64      H        0.12290    0.25910    0.07740    1.000
    C94      C        0.82630    0.53200    0.16350    1.000
    C95      C        0.78070    0.60630    0.19830    1.000
    C96      C        0.70600    0.66600    0.18260    1.000
    H65      H        0.68850    0.65840    0.15170    1.000
    C97      C        0.65760    0.73700    0.21310    1.000
    H66      H        0.60760    0.77700    0.20260    1.000
    C98      C        0.68380    0.74800    0.25920    1.000
    H67      H        0.65130    0.79590    0.27960    1.000
    C99      C        0.75840    0.68870    0.27490    1.000
    H68      H        0.77600    0.69620    0.30580    1.000
    C100     C        0.80690    0.61760    0.24440    1.000
    H69      H        0.85680    0.57760    0.25490    1.000
    N7       N        0.91460    0.78350    0.04140    1.000
    N8       N        0.90170    0.51240    0.16870    1.000
    C101     C        0.18970    0.47930    0.09560    1.000
    O19      O        0.24250    0.40610    0.07991    1.000
    O20      O        0.89500    0.11590    0.07740    1.000
    O21      O        0.02970    0.06470    0.06700    1.000
    O22      O        0.78830    0.48670    0.13040    1.000
    O23      O        0.20060    0.59180    0.10350    1.000
    Zn4      Zn       0.86143    0.94552    0.06551    1.000
    O24      O        0.96550    0.55510    0.23170    1.000
    C102     C        0.89900    0.55790    0.20820    1.000
    C103     C        0.81900    0.62160    0.22570    1.000
    C104     C        0.80910    0.63290    0.27340    1.000
    H70      H        0.85030    0.59910    0.29360    1.000
    C105     C        0.73760    0.69500    0.29100    1.000
    H71      H        0.73100    0.70220    0.32290    1.000
    C106     C        0.67600    0.74500    0.26090    1.000
    H72      H        0.62810    0.78650    0.27260    1.000
    C107     C        0.68590    0.73400    0.21320    1.000
    H73      H        0.64460    0.76770    0.19300    1.000
    C108     C        0.75740    0.67210    0.19560    1.000
    H74      H        0.76400    0.66460    0.16370    1.000
    H75      H        0.92360    0.54720    0.19380    1.000
    H76      H        0.85510    0.52830    0.15340    1.000
    C109     C        0.49720    0.72800    0.52850    1.000
    H77      H        0.53290    0.65860    0.53080    1.000
    C110     C        0.53140    0.83390    0.51240    1.000
    H78      H        0.58900    0.83580    0.50320    1.000
    C111     C        0.48150    0.94020    0.50930    1.000
    C112     C        0.39720    0.92970    0.52280    1.000
    H79      H        0.36090    0.99870    0.52130    1.000
    C113     C        0.36610    0.82020    0.53810    1.000
    H80      H        0.30840    0.81620    0.54690    1.000
    C114     C        0.47550    0.36330    0.57980    1.000
    C115     C        0.50000    0.24020    0.60000    1.000
    C116     C        0.44150    0.17210    0.62530    1.000
    H81      H        0.38690    0.20490    0.63100    1.000
    C117     C        0.46270    0.05640    0.64230    1.000
    C118     C        0.54240    0.00610    0.63270    1.000
    H82      H        0.55600    0.92620    0.64280    1.000
    C119     C        0.60270    0.07440    0.60810    1.000
    C120     C        0.58180    0.19320    0.59260    1.000
    H83      H        0.62290    0.24090    0.57740    1.000
    C121     C        0.32630    0.96800    0.66350    1.000
    C122     C        0.28070    0.89370    0.69830    1.000
    C123     C        0.20600    0.83400    0.68260    1.000
    H84      H        0.18850    0.84160    0.65170    1.000
    C124     C        0.15760    0.76300    0.71310    1.000
    H85      H        0.10760    0.72300    0.70260    1.000
    C125     C        0.18380    0.75200    0.75920    1.000
    H86      H        0.15130    0.70410    0.77960    1.000
    C126     C        0.25840    0.81130    0.77490    1.000
    H87      H        0.27600    0.80380    0.80580    1.000
    C127     C        0.30690    0.88240    0.74440    1.000
    H88      H        0.35680    0.92240    0.75490    1.000
    N9       N        0.41460    0.71650    0.54140    1.000
    N10      N        0.40170    0.98760    0.66870    1.000
    C128     C        0.68970    0.02070    0.59560    1.000
    O25      O        0.74250    0.09390    0.57991    1.000
    O26      O        0.39500    0.38410    0.57740    1.000
    O27      O        0.52970    0.43530    0.56700    1.000
    O28      O        0.28830    0.01330    0.63040    1.000
    O29      O        0.70060    0.90820    0.60350    1.000
    Zn5      Zn       0.36143    0.55448    0.56551    1.000
    O30      O        0.46550    0.94490    0.73170    1.000
    C129     C        0.39900    0.94210    0.70820    1.000
    C130     C        0.31900    0.87840    0.72570    1.000
    C131     C        0.30910    0.86710    0.77340    1.000
    H89      H        0.35030    0.90090    0.79360    1.000
    C132     C        0.23760    0.80500    0.79100    1.000
    H90      H        0.23100    0.79780    0.82290    1.000
    C133     C        0.17600    0.75500    0.76090    1.000
    H91      H        0.12810    0.71350    0.77260    1.000
    C134     C        0.18590    0.76600    0.71320    1.000
    H92      H        0.14460    0.73230    0.69300    1.000
    C135     C        0.25740    0.82790    0.69560    1.000
    H93      H        0.26400    0.83540    0.66370    1.000
    H94      H        0.42360    0.95280    0.69380    1.000
    H95      H        0.35510    0.97170    0.65340    1.000
    C136     C        0.99720    0.22800    0.52850    1.000
    H96      H        0.03290    0.15860    0.53080    1.000
    C137     C        0.03140    0.33390    0.51240    1.000
    H97      H        0.08900    0.33580    0.50320    1.000
    C138     C        0.98150    0.44020    0.50930    1.000
    C139     C        0.89720    0.42970    0.52280    1.000
    H98      H        0.86090    0.49870    0.52130    1.000
    C140     C        0.86610    0.32020    0.53810    1.000
    H99      H        0.80840    0.31620    0.54690    1.000
    C141     C        0.97550    0.86330    0.57980    1.000
    C142     C        0.00000    0.74020    0.60000    1.000
    C143     C        0.94150    0.67210    0.62530    1.000
    H100     H        0.88690    0.70490    0.63100    1.000
    C144     C        0.96270    0.55640    0.64230    1.000
    C145     C        0.04240    0.50610    0.63270    1.000
    H101     H        0.05600    0.42620    0.64280    1.000
    C146     C        0.10270    0.57440    0.60810    1.000
    C147     C        0.08180    0.69320    0.59260    1.000
    H102     H        0.12290    0.74090    0.57740    1.000
    C148     C        0.82630    0.46800    0.66350    1.000
    C149     C        0.78070    0.39370    0.69830    1.000
    C150     C        0.70600    0.33400    0.68260    1.000
    H103     H        0.68850    0.34160    0.65170    1.000
    C151     C        0.65760    0.26300    0.71310    1.000
    H104     H        0.60760    0.22300    0.70260    1.000
    C152     C        0.68380    0.25200    0.75920    1.000
    H105     H        0.65130    0.20410    0.77960    1.000
    C153     C        0.75840    0.31130    0.77490    1.000
    H106     H        0.77600    0.30380    0.80580    1.000
    C154     C        0.80690    0.38240    0.74440    1.000
    H107     H        0.85680    0.42240    0.75490    1.000
    N11      N        0.91460    0.21650    0.54140    1.000
    N12      N        0.90170    0.48760    0.66870    1.000
    C155     C        0.18970    0.52070    0.59560    1.000
    O31      O        0.24250    0.59390    0.57991    1.000
    O32      O        0.89500    0.88410    0.57740    1.000
    O33      O        0.02970    0.93530    0.56700    1.000
    O34      O        0.78830    0.51330    0.63040    1.000
    O35      O        0.20060    0.40820    0.60350    1.000
    Zn6      Zn       0.86143    0.05448    0.56551    1.000
    O36      O        0.96550    0.44490    0.73170    1.000
    C156     C        0.89900    0.44210    0.70820    1.000
    C157     C        0.81900    0.37840    0.72570    1.000
    C158     C        0.80910    0.36710    0.77340    1.000
    H108     H        0.85030    0.40090    0.79360    1.000
    C159     C        0.73760    0.30500    0.79100    1.000
    H109     H        0.73100    0.29780    0.82290    1.000
    C160     C        0.67600    0.25500    0.76090    1.000
    H110     H        0.62810    0.21350    0.77260    1.000
    C161     C        0.68590    0.26600    0.71320    1.000
    H111     H        0.64460    0.23230    0.69300    1.000
    C162     C        0.75740    0.32790    0.69560    1.000
    H112     H        0.76400    0.33540    0.66370    1.000
    H113     H        0.92360    0.45280    0.69380    1.000
    H114     H        0.85510    0.47170    0.65340    1.000
    C163     C        0.50280    0.72800    0.97150    1.000
    H115     H        0.46710    0.65860    0.96920    1.000
    C164     C        0.46860    0.83390    0.98760    1.000
    H116     H        0.41100    0.83580    0.99680    1.000
    C165     C        0.51850    0.94020    0.99070    1.000
    C166     C        0.60280    0.92970    0.97720    1.000
    H117     H        0.63910    0.99870    0.97870    1.000
    C167     C        0.63390    0.82020    0.96190    1.000
    H118     H        0.69160    0.81620    0.95310    1.000
    C168     C        0.52450    0.36330    0.92020    1.000
    C169     C        0.50000    0.24020    0.90000    1.000
    C170     C        0.55850    0.17210    0.87470    1.000
    H119     H        0.61310    0.20490    0.86900    1.000
    C171     C        0.53730    0.05640    0.85770    1.000
    C172     C        0.45760    0.00610    0.86730    1.000
    H120     H        0.44400    0.92620    0.85720    1.000
    C173     C        0.39730    0.07440    0.89190    1.000
    C174     C        0.41820    0.19320    0.90740    1.000
    H121     H        0.37710    0.24090    0.92260    1.000
    C175     C        0.67370    0.96800    0.83650    1.000
    C176     C        0.71930    0.89370    0.80170    1.000
    C177     C        0.79400    0.83400    0.81740    1.000
    H122     H        0.81150    0.84160    0.84830    1.000
    C178     C        0.84240    0.76300    0.78690    1.000
    H123     H        0.89240    0.72300    0.79740    1.000
    C179     C        0.81620    0.75200    0.74080    1.000
    H124     H        0.84870    0.70410    0.72040    1.000
    C180     C        0.74160    0.81130    0.72510    1.000
    H125     H        0.72400    0.80380    0.69420    1.000
    C181     C        0.69310    0.88240    0.75560    1.000
    H126     H        0.64320    0.92240    0.74510    1.000
    N13      N        0.58540    0.71650    0.95860    1.000
    N14      N        0.59830    0.98760    0.83130    1.000
    C182     C        0.31030    0.02070    0.90440    1.000
    O37      O        0.25750    0.09390    0.92009    1.000
    O38      O        0.60500    0.38410    0.92260    1.000
    O39      O        0.47030    0.43530    0.93300    1.000
    O40      O        0.71170    0.01330    0.86960    1.000
    O41      O        0.29940    0.90820    0.89650    1.000
    Zn7      Zn       0.63857    0.55448    0.93449    1.000
    O42      O        0.53450    0.94490    0.76830    1.000
    C183     C        0.60100    0.94210    0.79180    1.000
    C184     C        0.68100    0.87840    0.77430    1.000
    C185     C        0.69090    0.86710    0.72660    1.000
    H127     H        0.64970    0.90090    0.70640    1.000
    C186     C        0.76240    0.80500    0.70900    1.000
    H128     H        0.76900    0.79780    0.67710    1.000
    C187     C        0.82400    0.75500    0.73910    1.000
    H129     H        0.87190    0.71350    0.72740    1.000
    C188     C        0.81410    0.76600    0.78680    1.000
    H130     H        0.85540    0.73230    0.80700    1.000
    C189     C        0.74260    0.82790    0.80440    1.000
    H131     H        0.73600    0.83540    0.83630    1.000
    H132     H        0.57640    0.95280    0.80620    1.000
    H133     H        0.64490    0.97170    0.84660    1.000
    C190     C        0.00280    0.22800    0.97150    1.000
    H134     H        0.96710    0.15860    0.96920    1.000
    C191     C        0.96860    0.33390    0.98760    1.000
    H135     H        0.91100    0.33580    0.99680    1.000
    C192     C        0.01850    0.44020    0.99070    1.000
    C193     C        0.10280    0.42970    0.97720    1.000
    H136     H        0.13910    0.49870    0.97870    1.000
    C194     C        0.13390    0.32020    0.96190    1.000
    H137     H        0.19160    0.31620    0.95310    1.000
    C195     C        0.02450    0.86330    0.92020    1.000
    C196     C        0.00000    0.74020    0.90000    1.000
    C197     C        0.05850    0.67210    0.87470    1.000
    H138     H        0.11310    0.70490    0.86900    1.000
    C198     C        0.03730    0.55640    0.85770    1.000
    C199     C        0.95760    0.50610    0.86730    1.000
    H139     H        0.94400    0.42620    0.85720    1.000
    C200     C        0.89730    0.57440    0.89190    1.000
    C201     C        0.91820    0.69320    0.90740    1.000
    H140     H        0.87710    0.74090    0.92260    1.000
    C202     C        0.17370    0.46800    0.83650    1.000
    C203     C        0.21930    0.39370    0.80170    1.000
    C204     C        0.29400    0.33400    0.81740    1.000
    H141     H        0.31150    0.34160    0.84830    1.000
    C205     C        0.34240    0.26300    0.78690    1.000
    H142     H        0.39240    0.22300    0.79740    1.000
    C206     C        0.31620    0.25200    0.74080    1.000
    H143     H        0.34870    0.20410    0.72040    1.000
    C207     C        0.24160    0.31130    0.72510    1.000
    H144     H        0.22400    0.30380    0.69420    1.000
    C208     C        0.19310    0.38240    0.75560    1.000
    H145     H        0.14320    0.42240    0.74510    1.000
    N15      N        0.08540    0.21650    0.95860    1.000
    N16      N        0.09830    0.48760    0.83130    1.000
    C209     C        0.81030    0.52070    0.90440    1.000
    O43      O        0.75750    0.59390    0.92009    1.000
    O44      O        0.10500    0.88410    0.92260    1.000
    O45      O        0.97030    0.93530    0.93300    1.000
    O46      O        0.21170    0.51330    0.86960    1.000
    O47      O        0.79940    0.40820    0.89650    1.000
    Zn8      Zn       0.13857    0.05448    0.93449    1.000
    O48      O        0.03450    0.44490    0.76830    1.000
    C210     C        0.10100    0.44210    0.79180    1.000
    C211     C        0.18100    0.37840    0.77430    1.000
    C212     C        0.19090    0.36710    0.72660    1.000
    H146     H        0.14970    0.40090    0.70640    1.000
    C213     C        0.26240    0.30500    0.70900    1.000
    H147     H        0.26900    0.29780    0.67710    1.000
    C214     C        0.32400    0.25500    0.73910    1.000
    H148     H        0.37190    0.21350    0.72740    1.000
    C215     C        0.31410    0.26600    0.78680    1.000
    H149     H        0.35540    0.23230    0.80700    1.000
    C216     C        0.24260    0.32790    0.80440    1.000
    H150     H        0.23600    0.33540    0.83630    1.000
    H151     H        0.07640    0.45280    0.80620    1.000
    H152     H        0.14490    0.47170    0.84660    1.000
