# CIF file generated by openbabel 3.1.0, see https://openbabel.org
data_I
_chemical_name_common 'PELNEA01_clean'
_cell_length_a 8.9317
_cell_length_b 12.1579
_cell_length_c 16.9148
_cell_angle_alpha 90
_cell_angle_beta 90
_cell_angle_gamma 108.877
_space_group_name_H-M_alt 'P 1'
_space_group_name_Hall 'P 1'
loop_
    _symmetry_equiv_pos_as_xyz
    x,y,z
loop_
    _atom_site_label
    _atom_site_type_symbol
    _atom_site_fract_x
    _atom_site_fract_y
    _atom_site_fract_z
    _atom_site_occupancy
    La1      La       0.92996    0.95133    0.61635    1.000
    La2      La       0.57004    0.04867    0.11635    1.000
    La3      La       0.07004    0.04867    0.38365    1.000
    La4      La       0.42996    0.95133    0.88365    1.000
    H1       H        0.59860    0.64820    0.80820    1.000
    H2       H        0.40760    0.47320    0.77560    1.000
    H3       H        0.62400    0.46950    0.56880    1.000
    H4       H        0.81650    0.64450    0.60190    1.000
    H5       H        0.37890    0.36500    0.53690    1.000
    H6       H        0.47050    0.28450    0.57000    1.000
    H7       H        0.82410    0.81310    0.83340    1.000
    H8       H        0.91180    0.72120    0.82110    1.000
    H9       H        0.37720    0.85700    0.49130    1.000
    H10      H        0.24490    0.79370    0.43050    1.000
    H11      H        0.19900    0.50300    0.57900    1.000
    H12      H        0.00900    0.66100    0.42700    1.000
    H13      H        0.90140    0.35180    0.30820    1.000
    H14      H        0.09240    0.52680    0.27560    1.000
    H15      H        0.87600    0.53050    0.06880    1.000
    H16      H        0.68350    0.35550    0.10190    1.000
    H17      H        0.12110    0.63500    0.03690    1.000
    H18      H        0.02950    0.71550    0.07000    1.000
    H19      H        0.67590    0.18690    0.33340    1.000
    H20      H        0.58820    0.27880    0.32110    1.000
    H21      H        0.12280    0.14300    0.99130    1.000
    H22      H        0.25510    0.20630    0.93050    1.000
    H23      H        0.30100    0.49700    0.07900    1.000
    H24      H        0.49100    0.33900    0.92700    1.000
    H25      H        0.40140    0.35180    0.19180    1.000
    H26      H        0.59240    0.52680    0.22440    1.000
    H27      H        0.37600    0.53050    0.43120    1.000
    H28      H        0.18350    0.35550    0.39810    1.000
    H29      H        0.62110    0.63500    0.46310    1.000
    H30      H        0.52950    0.71550    0.43000    1.000
    H31      H        0.17590    0.18690    0.16660    1.000
    H32      H        0.08820    0.27880    0.17890    1.000
    H33      H        0.62280    0.14300    0.50870    1.000
    H34      H        0.75510    0.20630    0.56950    1.000
    H35      H        0.80100    0.49700    0.42100    1.000
    H36      H        0.99100    0.33900    0.57300    1.000
    H37      H        0.09860    0.64820    0.69180    1.000
    H38      H        0.90760    0.47320    0.72440    1.000
    H39      H        0.12400    0.46950    0.93120    1.000
    H40      H        0.31650    0.64450    0.89810    1.000
    H41      H        0.87890    0.36500    0.96310    1.000
    H42      H        0.97050    0.28450    0.93000    1.000
    H43      H        0.32410    0.81310    0.66660    1.000
    H44      H        0.41180    0.72120    0.67890    1.000
    H45      H        0.87720    0.85700    0.00870    1.000
    H46      H        0.74490    0.79370    0.06950    1.000
    H47      H        0.69900    0.50300    0.92100    1.000
    H48      H        0.50900    0.66100    0.07300    1.000
    C1       C        0.72280    0.66359    0.70683    1.000
    C2       C        0.60290    0.61280    0.75995    1.000
    C3       C        0.48890    0.50810    0.74025    1.000
    C4       C        0.49540    0.45550    0.66856    1.000
    C5       C        0.61810    0.50560    0.61662    1.000
    C6       C        0.73320    0.61060    0.63635    1.000
    C7       C        0.37550    0.30590    0.57602    1.000
    C8       C        0.23200    0.20010    0.56075    1.000
    C9       C        0.89810    0.79150    0.79991    1.000
    C10      C        0.05470    0.88780    0.79848    1.000
    C11      C        0.15730    0.85370    0.52696    1.000
    C12      C        0.27060    0.80280    0.48640    1.000
    C13      C        0.13080    0.60030    0.50730    1.000
    C14      C        0.12060    0.50120    0.55030    1.000
    C15      C        0.00780    0.59820    0.45660    1.000
    C16      C        0.77720    0.33641    0.20683    1.000
    C17      C        0.89710    0.38720    0.25995    1.000
    C18      C        0.01110    0.49190    0.24025    1.000
    C19      C        0.00460    0.54450    0.16856    1.000
    C20      C        0.88190    0.49440    0.11662    1.000
    C21      C        0.76680    0.38940    0.13635    1.000
    C22      C        0.12450    0.69410    0.07602    1.000
    C23      C        0.26800    0.79990    0.06075    1.000
    C24      C        0.60190    0.20850    0.29991    1.000
    C25      C        0.44530    0.11220    0.29848    1.000
    C26      C        0.34270    0.14630    0.02696    1.000
    C27      C        0.22940    0.19720    0.98640    1.000
    C28      C        0.36920    0.39970    0.00730    1.000
    C29      C        0.37940    0.49880    0.05030    1.000
    C30      C        0.49220    0.40180    0.95660    1.000
    C31      C        0.27720    0.33641    0.29317    1.000
    C32      C        0.39710    0.38720    0.24005    1.000
    C33      C        0.51110    0.49190    0.25975    1.000
    C34      C        0.50460    0.54450    0.33144    1.000
    C35      C        0.38190    0.49440    0.38338    1.000
    C36      C        0.26680    0.38940    0.36365    1.000
    C37      C        0.62450    0.69410    0.42398    1.000
    C38      C        0.76800    0.79990    0.43925    1.000
    C39      C        0.10190    0.20850    0.20009    1.000
    C40      C        0.94530    0.11220    0.20152    1.000
    C41      C        0.84270    0.14630    0.47304    1.000
    C42      C        0.72940    0.19720    0.51360    1.000
    C43      C        0.86920    0.39970    0.49270    1.000
    C44      C        0.87940    0.49880    0.44970    1.000
    C45      C        0.99220    0.40180    0.54340    1.000
    C46      C        0.22280    0.66359    0.79317    1.000
    C47      C        0.10290    0.61280    0.74005    1.000
    C48      C        0.98890    0.50810    0.75975    1.000
    C49      C        0.99540    0.45550    0.83144    1.000
    C50      C        0.11810    0.50560    0.88338    1.000
    C51      C        0.23320    0.61060    0.86365    1.000
    C52      C        0.87550    0.30590    0.92398    1.000
    C53      C        0.73200    0.20010    0.93925    1.000
    C54      C        0.39810    0.79150    0.70009    1.000
    C55      C        0.55470    0.88780    0.70152    1.000
    C56      C        0.65730    0.85370    0.97304    1.000
    C57      C        0.77060    0.80280    0.01360    1.000
    C58      C        0.63080    0.60030    0.99270    1.000
    C59      C        0.62060    0.50120    0.94970    1.000
    C60      C        0.50780    0.59820    0.04340    1.000
    O1       O        0.83790    0.77133    0.72073    1.000
    O2       O        0.13380    0.93978    0.49427    1.000
    O3       O        0.09670    0.81460    0.59143    1.000
    O4       O        0.26670    0.69334    0.51789    1.000
    O5       O        0.08980    0.95193    0.73837    1.000
    O6       O        0.37390    0.35262    0.65250    1.000
    O7       O        0.16080    0.13895    0.61698    1.000
    O8       O        0.20170    0.18276    0.48899    1.000
    O9       O        0.13930    0.89933    0.85847    1.000
    O10      O        0.66210    0.22867    0.22073    1.000
    O11      O        0.36620    0.06022    0.99427    1.000
    O12      O        0.40330    0.18540    0.09143    1.000
    O13      O        0.23330    0.30666    0.01789    1.000
    O14      O        0.41020    0.04807    0.23837    1.000
    O15      O        0.12610    0.64738    0.15250    1.000
    O16      O        0.33920    0.86105    0.11698    1.000
    O17      O        0.29830    0.81724    0.98899    1.000
    O18      O        0.36070    0.10067    0.35847    1.000
    O19      O        0.16210    0.22867    0.27927    1.000
    O20      O        0.86620    0.06022    0.50573    1.000
    O21      O        0.90330    0.18540    0.40857    1.000
    O22      O        0.73330    0.30666    0.48211    1.000
    O23      O        0.91020    0.04807    0.26163    1.000
    O24      O        0.62610    0.64738    0.34750    1.000
    O25      O        0.83920    0.86105    0.38302    1.000
    O26      O        0.79830    0.81724    0.51101    1.000
    O27      O        0.86070    0.10067    0.14153    1.000
    O28      O        0.33790    0.77133    0.77927    1.000
    O29      O        0.63380    0.93978    0.00573    1.000
    O30      O        0.59670    0.81460    0.90857    1.000
    O31      O        0.76670    0.69334    0.98211    1.000
    O32      O        0.58980    0.95193    0.76163    1.000
    O33      O        0.87390    0.35262    0.84750    1.000
    O34      O        0.66080    0.13895    0.88302    1.000
    O35      O        0.70170    0.18276    0.01101    1.000
    O36      O        0.63930    0.89933    0.64153    1.000
