# CIF file generated by openbabel 3.1.0, see https://openbabel.org
data_I
_chemical_name_common 'image0'
_cell_length_a 7.1564
_cell_length_b 18.2265
_cell_length_c 8.1397
_cell_angle_alpha 90
_cell_angle_beta 95.038
_cell_angle_gamma 90
_space_group_name_H-M_alt 'P 1'
_space_group_name_Hall 'P 1'
loop_
    _symmetry_equiv_pos_as_xyz
    x,y,z
loop_
    _atom_site_label
    _atom_site_type_symbol
    _atom_site_fract_x
    _atom_site_fract_y
    _atom_site_fract_z
    _atom_site_occupancy
    V1       V        0.25250    0.26127    0.99980    1.000
    P1       P        0.97394    0.34764    0.73120    1.000
    P2       P        0.51945    0.15107    0.22678    1.000
    O1       O        0.97800    0.42648    0.67200    1.000
    O2       O        0.16540    0.32720    0.81820    1.000
    O3       O        0.81280    0.33749    0.84240    1.000
    O4       O        0.34070    0.19430    0.18250    1.000
    O5       O        0.68990    0.18650    0.16200    1.000
    O6       O        0.55700    0.07730    0.14500    1.000
    O7       O        0.52790    0.07240    0.81240    1.000
    C1       C        0.92850    0.28580    0.56340    1.000
    H1       H        0.92070    0.23550    0.60830    1.000
    H2       H        0.80420    0.29780    0.50660    1.000
    C2       C        0.55500    0.16820    0.45500    1.000
    H3       H        0.64970    0.13200    0.49790    1.000
    H4       H        0.61630    0.21680    0.46690    1.000
    C3       C        0.56840    0.13070    0.43510    1.000
    H5       H        0.62500    0.08110    0.43860    1.000
    H6       H        0.66990    0.16480    0.47560    1.000
    V2       V        0.74750    0.26127    0.00020    1.000
    P3       P        0.02606    0.34764    0.26880    1.000
    P4       P        0.48055    0.15107    0.77322    1.000
    O8       O        0.02200    0.42648    0.32800    1.000
    O9       O        0.83460    0.32720    0.18180    1.000
    O10      O        0.18720    0.33749    0.15760    1.000
    O11      O        0.65930    0.19430    0.81750    1.000
    O12      O        0.31010    0.18650    0.83800    1.000
    O13      O        0.44300    0.07730    0.85500    1.000
    O14      O        0.47210    0.07240    0.18760    1.000
    C4       C        0.07150    0.28580    0.43660    1.000
    H7       H        0.07930    0.23550    0.39170    1.000
    H8       H        0.19580    0.29780    0.49340    1.000
    C5       C        0.44500    0.16820    0.54500    1.000
    H9       H        0.35030    0.13200    0.50210    1.000
    H10      H        0.38370    0.21680    0.53310    1.000
    C6       C        0.43160    0.13070    0.56490    1.000
    H11      H        0.37500    0.08110    0.56140    1.000
    H12      H        0.33010    0.16480    0.52440    1.000
    V3       V        0.74750    0.73873    0.00020    1.000
    P5       P        0.02606    0.65236    0.26880    1.000
    P6       P        0.48055    0.84893    0.77322    1.000
    O15      O        0.02200    0.57352    0.32800    1.000
    O16      O        0.83460    0.67280    0.18180    1.000
    O17      O        0.18720    0.66251    0.15760    1.000
    O18      O        0.65930    0.80570    0.81750    1.000
    O19      O        0.31010    0.81350    0.83800    1.000
    O20      O        0.44300    0.92270    0.85500    1.000
    O21      O        0.47210    0.92760    0.18760    1.000
    C7       C        0.07150    0.71420    0.43660    1.000
    H13      H        0.07930    0.76450    0.39170    1.000
    H14      H        0.19580    0.70220    0.49340    1.000
    C8       C        0.44500    0.83180    0.54500    1.000
    H15      H        0.35030    0.86800    0.50210    1.000
    H16      H        0.38370    0.78320    0.53310    1.000
    C9       C        0.43160    0.86930    0.56490    1.000
    H17      H        0.37500    0.91890    0.56140    1.000
    H18      H        0.33010    0.83520    0.52440    1.000
    V4       V        0.25250    0.73873    0.99980    1.000
    P7       P        0.97394    0.65236    0.73120    1.000
    P8       P        0.51945    0.84893    0.22678    1.000
    O22      O        0.97800    0.57352    0.67200    1.000
    O23      O        0.16540    0.67280    0.81820    1.000
    O24      O        0.81280    0.66251    0.84240    1.000
    O25      O        0.34070    0.80570    0.18250    1.000
    O26      O        0.68990    0.81350    0.16200    1.000
    O27      O        0.55700    0.92270    0.14500    1.000
    O28      O        0.52790    0.92760    0.81240    1.000
    C10      C        0.92850    0.71420    0.56340    1.000
    H19      H        0.92070    0.76450    0.60830    1.000
    H20      H        0.80420    0.70220    0.50660    1.000
    C11      C        0.55500    0.83180    0.45500    1.000
    H21      H        0.64970    0.86800    0.49790    1.000
    H22      H        0.61630    0.78320    0.46690    1.000
    C12      C        0.56840    0.86930    0.43510    1.000
    H23      H        0.62500    0.91890    0.43860    1.000
    H24      H        0.66990    0.83520    0.47560    1.000
    V5       V        0.00000    0.50000    0.50000    1.000
    V6       V        0.50000    0.00000    0.00000    1.000
    F1       F        0.00000    0.21781    0.00000    1.000
    F2       F        0.00000    0.78219    0.00000    1.000
    F3       F        0.50000    0.30502    0.00000    1.000
    F4       F        0.50000    0.69498    0.00000    1.000
    O29      O        0.24230    0.00000    0.95550    1.000
    O30      O        0.80000    0.00000    0.91700    1.000
    O31      O        0.75770    0.00000    0.04450    1.000
    O32      O        0.20000    0.00000    0.08300    1.000
