# CIF file generated by openbabel 3.1.0, see https://openbabel.org
data_I
_chemical_name_common 'image0'
_cell_length_a 26.2903
_cell_length_b 26.2903
_cell_length_c 7.0676
_cell_angle_alpha 90
_cell_angle_beta 90
_cell_angle_gamma 120
_space_group_name_H-M_alt 'P 1'
_space_group_name_Hall 'P 1'
loop_
    _symmetry_equiv_pos_as_xyz
    x,y,z
loop_
    _atom_site_label
    _atom_site_type_symbol
    _atom_site_fract_x
    _atom_site_fract_y
    _atom_site_fract_z
    _atom_site_occupancy
    Mn1      Mn       0.95250    0.63680    0.02700    1.000
    C1       C        0.01280    0.59170    0.75800    1.000
    C2       C        0.00690    0.54520    0.89500    1.000
    C3       C        0.99020    0.54410    0.08700    1.000
    C4       C        0.98430    0.49700    0.18940    1.000
    H1       H        0.97257    0.49750    0.33724    1.000
    O1       O        0.03030    0.59230    0.59200    1.000
    O2       O        0.00670    0.63530    0.80000    1.000
    O3       O        0.97770    0.58530    0.14500    1.000
    Mn2      Mn       0.61917    0.97013    0.36033    1.000
    C5       C        0.67947    0.92503    0.09133    1.000
    C6       C        0.67357    0.87853    0.22833    1.000
    C7       C        0.65687    0.87743    0.42033    1.000
    C8       C        0.65097    0.83033    0.52273    1.000
    H2       H        0.63924    0.83083    0.67057    1.000
    O4       O        0.69697    0.92563    0.92533    1.000
    O5       O        0.67337    0.96863    0.13333    1.000
    O6       O        0.64437    0.91863    0.47833    1.000
    Mn3      Mn       0.28583    0.30347    0.69367    1.000
    C9       C        0.34613    0.25837    0.42467    1.000
    C10      C        0.34023    0.21187    0.56167    1.000
    C11      C        0.32353    0.21077    0.75367    1.000
    C12      C        0.31763    0.16367    0.85607    1.000
    H3       H        0.30590    0.16417    0.00391    1.000
    O7       O        0.36363    0.25897    0.25867    1.000
    O8       O        0.34003    0.30197    0.46667    1.000
    O9       O        0.31103    0.25197    0.81167    1.000
    Mn4      Mn       0.36320    0.31570    0.02700    1.000
    C13      C        0.40830    0.42110    0.75800    1.000
    C14      C        0.45480    0.46170    0.89500    1.000
    C15      C        0.45590    0.44610    0.08700    1.000
    C16      C        0.50300    0.48730    0.18940    1.000
    H4       H        0.50250    0.47507    0.33724    1.000
    O10      O        0.40770    0.43800    0.59200    1.000
    O11      O        0.36470    0.37140    0.80000    1.000
    O12      O        0.41470    0.39240    0.14500    1.000
    Mn5      Mn       0.02987    0.64903    0.36033    1.000
    C17      C        0.07497    0.75443    0.09133    1.000
    C18      C        0.12147    0.79503    0.22833    1.000
    C19      C        0.12257    0.77943    0.42033    1.000
    C20      C        0.16967    0.82063    0.52273    1.000
    H5       H        0.16917    0.80840    0.67057    1.000
    O13      O        0.07437    0.77133    0.92533    1.000
    O14      O        0.03137    0.70473    0.13333    1.000
    O15      O        0.08137    0.72573    0.47833    1.000
    Mn6      Mn       0.69653    0.98237    0.69367    1.000
    C21      C        0.74163    0.08777    0.42467    1.000
    C22      C        0.78813    0.12837    0.56167    1.000
    C23      C        0.78923    0.11277    0.75367    1.000
    C24      C        0.83633    0.15397    0.85607    1.000
    H6       H        0.83583    0.14174    0.00391    1.000
    O16      O        0.74103    0.10467    0.25867    1.000
    O17      O        0.69803    0.03807    0.46667    1.000
    O18      O        0.74803    0.05907    0.81167    1.000
    Mn7      Mn       0.68430    0.04750    0.02700    1.000
    C25      C        0.57890    0.98720    0.75800    1.000
    C26      C        0.53830    0.99310    0.89500    1.000
    C27      C        0.55390    0.00980    0.08700    1.000
    C28      C        0.51270    0.01570    0.18940    1.000
    H7       H        0.52493    0.02743    0.33724    1.000
    O19      O        0.56200    0.96970    0.59200    1.000
    O20      O        0.62860    0.99330    0.80000    1.000
    O21      O        0.60760    0.02230    0.14500    1.000
    Mn8      Mn       0.35097    0.38083    0.36033    1.000
    C29      C        0.24557    0.32053    0.09133    1.000
    C30      C        0.20497    0.32643    0.22833    1.000
    C31      C        0.22057    0.34313    0.42033    1.000
    C32      C        0.17937    0.34903    0.52273    1.000
    H8       H        0.19160    0.36076    0.67057    1.000
    O22      O        0.22867    0.30303    0.92533    1.000
    O23      O        0.29527    0.32663    0.13333    1.000
    O24      O        0.27427    0.35563    0.47833    1.000
    Mn9      Mn       0.01763    0.71417    0.69367    1.000
    C33      C        0.91223    0.65387    0.42467    1.000
    C34      C        0.87163    0.65977    0.56167    1.000
    C35      C        0.88723    0.67647    0.75367    1.000
    C36      C        0.84603    0.68237    0.85607    1.000
    H9       H        0.85826    0.69410    0.00391    1.000
    O25      O        0.89533    0.63637    0.25867    1.000
    O26      O        0.96193    0.65997    0.46667    1.000
    O27      O        0.94093    0.68897    0.81167    1.000
    Mn10     Mn       0.04750    0.36320    0.97300    1.000
    C37      C        0.98720    0.40830    0.24200    1.000
    C38      C        0.99310    0.45480    0.10500    1.000
    C39      C        0.00980    0.45590    0.91300    1.000
    C40      C        0.01570    0.50300    0.81060    1.000
    H10      H        0.02743    0.50250    0.66276    1.000
    O28      O        0.96970    0.40770    0.40800    1.000
    O29      O        0.99330    0.36470    0.20000    1.000
    O30      O        0.02230    0.41470    0.85500    1.000
    Mn11     Mn       0.71417    0.69653    0.30633    1.000
    C41      C        0.65387    0.74163    0.57533    1.000
    C42      C        0.65977    0.78813    0.43833    1.000
    C43      C        0.67647    0.78923    0.24633    1.000
    C44      C        0.68237    0.83633    0.14393    1.000
    H11      H        0.69410    0.83583    0.99609    1.000
    O31      O        0.63637    0.74103    0.74133    1.000
    O32      O        0.65997    0.69803    0.53333    1.000
    O33      O        0.68897    0.74803    0.18833    1.000
    Mn12     Mn       0.38083    0.02987    0.63967    1.000
    C45      C        0.32053    0.07497    0.90867    1.000
    C46      C        0.32643    0.12147    0.77167    1.000
    C47      C        0.34313    0.12257    0.57967    1.000
    C48      C        0.34903    0.16967    0.47727    1.000
    H12      H        0.36076    0.16917    0.32943    1.000
    O34      O        0.30303    0.07437    0.07467    1.000
    O35      O        0.32663    0.03137    0.86667    1.000
    O36      O        0.35563    0.08137    0.52167    1.000
    Mn13     Mn       0.63680    0.68430    0.97300    1.000
    C49      C        0.59170    0.57890    0.24200    1.000
    C50      C        0.54520    0.53830    0.10500    1.000
    C51      C        0.54410    0.55390    0.91300    1.000
    C52      C        0.49700    0.51270    0.81060    1.000
    H13      H        0.49750    0.52493    0.66276    1.000
    O37      O        0.59230    0.56200    0.40800    1.000
    O38      O        0.63530    0.62860    0.20000    1.000
    O39      O        0.58530    0.60760    0.85500    1.000
    Mn14     Mn       0.30347    0.01763    0.30633    1.000
    C53      C        0.25837    0.91223    0.57533    1.000
    C54      C        0.21187    0.87163    0.43833    1.000
    C55      C        0.21077    0.88723    0.24633    1.000
    C56      C        0.16367    0.84603    0.14393    1.000
    H14      H        0.16417    0.85826    0.99609    1.000
    O40      O        0.25897    0.89533    0.74133    1.000
    O41      O        0.30197    0.96193    0.53333    1.000
    O42      O        0.25197    0.94093    0.18833    1.000
    Mn15     Mn       0.97013    0.35097    0.63967    1.000
    C57      C        0.92503    0.24557    0.90867    1.000
    C58      C        0.87853    0.20497    0.77167    1.000
    C59      C        0.87743    0.22057    0.57967    1.000
    C60      C        0.83033    0.17937    0.47727    1.000
    H15      H        0.83083    0.19160    0.32943    1.000
    O43      O        0.92563    0.22867    0.07467    1.000
    O44      O        0.96863    0.29527    0.86667    1.000
    O45      O        0.91863    0.27427    0.52167    1.000
    Mn16     Mn       0.31570    0.95250    0.97300    1.000
    C61      C        0.42110    0.01280    0.24200    1.000
    C62      C        0.46170    0.00690    0.10500    1.000
    C63      C        0.44610    0.99020    0.91300    1.000
    C64      C        0.48730    0.98430    0.81060    1.000
    H16      H        0.47507    0.97257    0.66276    1.000
    O46      O        0.43800    0.03030    0.40800    1.000
    O47      O        0.37140    0.00670    0.20000    1.000
    O48      O        0.39240    0.97770    0.85500    1.000
    Mn17     Mn       0.98237    0.28583    0.30633    1.000
    C65      C        0.08777    0.34613    0.57533    1.000
    C66      C        0.12837    0.34023    0.43833    1.000
    C67      C        0.11277    0.32353    0.24633    1.000
    C68      C        0.15397    0.31763    0.14393    1.000
    H17      H        0.14174    0.30590    0.99609    1.000
    O49      O        0.10467    0.36363    0.74133    1.000
    O50      O        0.03807    0.34003    0.53333    1.000
    O51      O        0.05907    0.31103    0.18833    1.000
    Mn18     Mn       0.64903    0.61917    0.63967    1.000
    C69      C        0.75443    0.67947    0.90867    1.000
    C70      C        0.79503    0.67357    0.77167    1.000
    C71      C        0.77943    0.65687    0.57967    1.000
    C72      C        0.82063    0.65097    0.47727    1.000
    H18      H        0.80840    0.63924    0.32943    1.000
    O52      O        0.77133    0.69697    0.07467    1.000
    O53      O        0.70473    0.67337    0.86667    1.000
    O54      O        0.72573    0.64437    0.52167    1.000
