# CIF file generated by openbabel 3.1.0, see https://openbabel.org
data_I
_chemical_name_common 'image0'
_cell_length_a 5.7018
_cell_length_b 21.6612
_cell_length_c 21.5687
_cell_angle_alpha 89.976
_cell_angle_beta 89.992
_cell_angle_gamma 89.989
_space_group_name_H-M_alt 'P 1'
_space_group_name_Hall 'P 1'
loop_
    _symmetry_equiv_pos_as_xyz
    x,y,z
loop_
    _atom_site_label
    _atom_site_type_symbol
    _atom_site_fract_x
    _atom_site_fract_y
    _atom_site_fract_z
    _atom_site_occupancy
    Ag1      Ag       0.86944    0.00060    0.24984    1.000
    N1       N        0.59520    0.92160    0.24960    1.000
    N2       N        0.60840    0.07660    0.25000    1.000
    N3       N        0.14110    0.00270    0.17190    1.000
    N4       N        0.14000    0.00290    0.32980    1.000
    C1       C        0.23060    0.85160    0.24930    1.000
    C2       C        0.13190    0.83220    0.19370    1.000
    H1       H        0.19410    0.84650    0.15540    1.000
    C3       C        0.94220    0.79190    0.19410    1.000
    H2       H        0.87470    0.77870    0.15610    1.000
    C4       C        0.85120    0.77100    0.25000    1.000
    C5       C        0.94980    0.79040    0.30570    1.000
    H3       H        0.88760    0.77610    0.34390    1.000
    C6       C        0.13960    0.83070    0.30530    1.000
    H4       H        0.20700    0.84390    0.34330    1.000
    C7       C        0.43170    0.89040    0.24980    1.000
    C8       C        0.23680    0.14760    0.25010    1.000
    C9       C        0.14140    0.16770    0.19430    1.000
    H5       H        0.20720    0.15420    0.15610    1.000
    C10      C        0.94990    0.20740    0.19430    1.000
    H6       H        0.88470    0.22110    0.15620    1.000
    C11      C        0.85370    0.22700    0.25020    1.000
    C12      C        0.94900    0.20690    0.30590    1.000
    H7       H        0.88330    0.22030    0.34410    1.000
    C13      C        0.14060    0.16720    0.30590    1.000
    H8       H        0.20570    0.15350    0.34400    1.000
    C14      C        0.44900    0.10700    0.25050    1.000
    C15      C        0.51450    0.00190    0.10270    1.000
    C16      C        0.60940    0.05710    0.08130    1.000
    H9       H        0.54340    0.09530    0.09400    1.000
    C17      C        0.80080    0.05620    0.04140    1.000
    H10      H        0.86560    0.09390    0.02680    1.000
    C18      C        0.89730    0.00030    0.02290    1.000
    C19      C        0.80250    0.94510    0.04430    1.000
    H11      H        0.86840    0.90690    0.03170    1.000
    C20      C        0.61100    0.94590    0.08420    1.000
    H12      H        0.54620    0.90830    0.09890    1.000
    C21      C        0.31310    0.00160    0.14090    1.000
    C22      C        0.51670    0.00210    0.39700    1.000
    C23      C        0.61190    0.94620    0.41620    1.000
    H13      H        0.54670    0.90850    0.40180    1.000
    C24      C        0.80250    0.94550    0.45630    1.000
    H14      H        0.86750    0.90730    0.46940    1.000
    C25      C        0.89790    0.00070    0.47740    1.000
    C26      C        0.80270    0.05660    0.45820    1.000
    H15      H        0.86790    0.09430    0.47260    1.000
    C27      C        0.61210    0.05730    0.41800    1.000
    H16      H        0.54710    0.09560    0.40490    1.000
    C28      C        0.30870    0.00090    0.35990    1.000
    Ag2      Ag       0.36944    0.50060    0.74984    1.000
    N5       N        0.09520    0.42160    0.74960    1.000
    N6       N        0.10840    0.57660    0.75000    1.000
    N7       N        0.64110    0.50270    0.67190    1.000
    N8       N        0.64000    0.50290    0.82980    1.000
    C29      C        0.73060    0.35160    0.74930    1.000
    C30      C        0.63190    0.33220    0.69370    1.000
    H17      H        0.69410    0.34650    0.65540    1.000
    C31      C        0.44220    0.29190    0.69410    1.000
    H18      H        0.37470    0.27870    0.65610    1.000
    C32      C        0.35120    0.27100    0.75000    1.000
    C33      C        0.44980    0.29040    0.80570    1.000
    H19      H        0.38760    0.27610    0.84390    1.000
    C34      C        0.63960    0.33070    0.80530    1.000
    H20      H        0.70700    0.34390    0.84330    1.000
    C35      C        0.93170    0.39040    0.74980    1.000
    C36      C        0.73680    0.64760    0.75010    1.000
    C37      C        0.64140    0.66770    0.69430    1.000
    H21      H        0.70720    0.65420    0.65610    1.000
    C38      C        0.44990    0.70740    0.69430    1.000
    H22      H        0.38470    0.72110    0.65620    1.000
    C39      C        0.35370    0.72700    0.75020    1.000
    C40      C        0.44900    0.70690    0.80590    1.000
    H23      H        0.38330    0.72030    0.84410    1.000
    C41      C        0.64060    0.66720    0.80590    1.000
    H24      H        0.70570    0.65350    0.84400    1.000
    C42      C        0.94900    0.60700    0.75050    1.000
    C43      C        0.01450    0.50190    0.60270    1.000
    C44      C        0.10940    0.55710    0.58130    1.000
    H25      H        0.04340    0.59530    0.59400    1.000
    C45      C        0.30080    0.55620    0.54140    1.000
    H26      H        0.36560    0.59390    0.52680    1.000
    C46      C        0.39730    0.50030    0.52290    1.000
    C47      C        0.30250    0.44510    0.54430    1.000
    H27      H        0.36840    0.40690    0.53170    1.000
    C48      C        0.11100    0.44590    0.58420    1.000
    H28      H        0.04620    0.40830    0.59890    1.000
    C49      C        0.81310    0.50160    0.64090    1.000
    C50      C        0.01670    0.50210    0.89700    1.000
    C51      C        0.11190    0.44620    0.91620    1.000
    H29      H        0.04670    0.40850    0.90180    1.000
    C52      C        0.30250    0.44550    0.95630    1.000
    H30      H        0.36750    0.40730    0.96940    1.000
    C53      C        0.39790    0.50070    0.97740    1.000
    C54      C        0.30270    0.55660    0.95820    1.000
    H31      H        0.36790    0.59430    0.97260    1.000
    C55      C        0.11210    0.55730    0.91800    1.000
    H32      H        0.04710    0.59560    0.90490    1.000
    C56      C        0.80870    0.50090    0.85990    1.000
    Ag3      Ag       0.13056    0.99940    0.75016    1.000
    N9       N        0.40480    0.07840    0.75040    1.000
    N10      N        0.39160    0.92340    0.75000    1.000
    N11      N        0.85890    0.99730    0.82810    1.000
    N12      N        0.86000    0.99710    0.67020    1.000
    C57      C        0.76940    0.14840    0.75070    1.000
    C58      C        0.86810    0.16780    0.80630    1.000
    H33      H        0.80590    0.15350    0.84460    1.000
    C59      C        0.05780    0.20810    0.80590    1.000
    H34      H        0.12530    0.22130    0.84390    1.000
    C60      C        0.14880    0.22900    0.75000    1.000
    C61      C        0.05020    0.20960    0.69430    1.000
    H35      H        0.11240    0.22390    0.65610    1.000
    C62      C        0.86040    0.16930    0.69470    1.000
    H36      H        0.79300    0.15610    0.65670    1.000
    C63      C        0.56830    0.10960    0.75020    1.000
    C64      C        0.76320    0.85240    0.74990    1.000
    C65      C        0.85860    0.83230    0.80570    1.000
    H37      H        0.79280    0.84580    0.84390    1.000
    C66      C        0.05010    0.79260    0.80570    1.000
    H38      H        0.11530    0.77890    0.84380    1.000
    C67      C        0.14630    0.77300    0.74980    1.000
    C68      C        0.05100    0.79310    0.69410    1.000
    H39      H        0.11670    0.77970    0.65590    1.000
    C69      C        0.85940    0.83280    0.69410    1.000
    H40      H        0.79430    0.84650    0.65600    1.000
    C70      C        0.55100    0.89300    0.74950    1.000
    C71      C        0.48550    0.99810    0.89730    1.000
    C72      C        0.39060    0.94290    0.91870    1.000
    H41      H        0.45660    0.90470    0.90600    1.000
    C73      C        0.19920    0.94380    0.95860    1.000
    H42      H        0.13440    0.90610    0.97320    1.000
    C74      C        0.10270    0.99970    0.97710    1.000
    C75      C        0.19750    0.05490    0.95570    1.000
    H43      H        0.13160    0.09310    0.96830    1.000
    C76      C        0.38900    0.05410    0.91580    1.000
    H44      H        0.45380    0.09170    0.90110    1.000
    C77      C        0.68690    0.99840    0.85910    1.000
    C78      C        0.48330    0.99790    0.60300    1.000
    C79      C        0.38810    0.05380    0.58380    1.000
    H45      H        0.45330    0.09150    0.59820    1.000
    C80      C        0.19750    0.05450    0.54370    1.000
    H46      H        0.13250    0.09270    0.53060    1.000
    C81      C        0.10210    0.99930    0.52260    1.000
    C82      C        0.19730    0.94340    0.54180    1.000
    H47      H        0.13210    0.90570    0.52740    1.000
    C83      C        0.38790    0.94270    0.58200    1.000
    H48      H        0.45290    0.90440    0.59510    1.000
    C84      C        0.69130    0.99910    0.64010    1.000
    Ag4      Ag       0.63056    0.49940    0.25016    1.000
    N13      N        0.90480    0.57840    0.25040    1.000
    N14      N        0.89160    0.42340    0.25000    1.000
    N15      N        0.35890    0.49730    0.32810    1.000
    N16      N        0.36000    0.49710    0.17020    1.000
    C85      C        0.26940    0.64840    0.25070    1.000
    C86      C        0.36810    0.66780    0.30630    1.000
    H49      H        0.30590    0.65350    0.34460    1.000
    C87      C        0.55780    0.70810    0.30590    1.000
    H50      H        0.62530    0.72130    0.34390    1.000
    C88      C        0.64880    0.72900    0.25000    1.000
    C89      C        0.55020    0.70960    0.19430    1.000
    H51      H        0.61240    0.72390    0.15610    1.000
    C90      C        0.36040    0.66930    0.19470    1.000
    H52      H        0.29300    0.65610    0.15670    1.000
    C91      C        0.06830    0.60960    0.25020    1.000
    C92      C        0.26320    0.35240    0.24990    1.000
    C93      C        0.35860    0.33230    0.30570    1.000
    H53      H        0.29280    0.34580    0.34390    1.000
    C94      C        0.55010    0.29260    0.30570    1.000
    H54      H        0.61530    0.27890    0.34380    1.000
    C95      C        0.64630    0.27300    0.24980    1.000
    C96      C        0.55100    0.29310    0.19410    1.000
    H55      H        0.61670    0.27970    0.15590    1.000
    C97      C        0.35940    0.33280    0.19410    1.000
    H56      H        0.29430    0.34650    0.15600    1.000
    C98      C        0.05100    0.39300    0.24950    1.000
    C99      C        0.98550    0.49810    0.39730    1.000
    C100     C        0.89060    0.44290    0.41870    1.000
    H57      H        0.95660    0.40470    0.40600    1.000
    C101     C        0.69920    0.44380    0.45860    1.000
    H58      H        0.63440    0.40610    0.47320    1.000
    C102     C        0.60270    0.49970    0.47710    1.000
    C103     C        0.69750    0.55490    0.45570    1.000
    H59      H        0.63160    0.59310    0.46830    1.000
    C104     C        0.88900    0.55410    0.41580    1.000
    H60      H        0.95380    0.59170    0.40110    1.000
    C105     C        0.18690    0.49840    0.35910    1.000
    C106     C        0.98330    0.49790    0.10300    1.000
    C107     C        0.88810    0.55380    0.08380    1.000
    H61      H        0.95330    0.59150    0.09820    1.000
    C108     C        0.69750    0.55450    0.04370    1.000
    H62      H        0.63250    0.59270    0.03060    1.000
    C109     C        0.60210    0.49930    0.02260    1.000
    C110     C        0.69730    0.44340    0.04180    1.000
    H63      H        0.63210    0.40570    0.02740    1.000
    C111     C        0.88790    0.44270    0.08200    1.000
    H64      H        0.95290    0.40440    0.09510    1.000
    C112     C        0.19130    0.49910    0.14010    1.000
