# CIF file generated by openbabel 3.1.0, see https://openbabel.org
data_I
_chemical_name_common 'image0'
_cell_length_a 9.9937
_cell_length_b 9.9937
_cell_length_c 12.8519
_cell_angle_alpha 90
_cell_angle_beta 90
_cell_angle_gamma 90
_space_group_name_H-M_alt 'P 1'
_space_group_name_Hall 'P 1'
loop_
    _symmetry_equiv_pos_as_xyz
    x,y,z
loop_
    _atom_site_label
    _atom_site_type_symbol
    _atom_site_fract_x
    _atom_site_fract_y
    _atom_site_fract_z
    _atom_site_occupancy
    Co1      Co       0.87890    0.12610    0.29810    1.000
    P1       P        0.85010    0.86140    0.17840    1.000
    O1       O        0.72780    0.77760    0.17320    1.000
    O2       O        0.92270    0.84790    0.07570    1.000
    O3       O        0.80960    0.01010    0.19330    1.000
    O4       O        0.88000    0.04260    0.43370    1.000
    O5       O        0.05810    0.18570    0.26420    1.000
    Co2      Co       0.12110    0.87390    0.29810    1.000
    P2       P        0.14990    0.13860    0.17840    1.000
    O6       O        0.27220    0.22240    0.17320    1.000
    O7       O        0.07730    0.15210    0.07570    1.000
    O8       O        0.19040    0.98990    0.19330    1.000
    O9       O        0.12000    0.95740    0.43370    1.000
    O10      O        0.94190    0.81430    0.26420    1.000
    Co3      Co       0.12610    0.12110    0.70190    1.000
    P3       P        0.86140    0.14990    0.82160    1.000
    O11      O        0.77760    0.27220    0.82680    1.000
    O12      O        0.84790    0.07730    0.92430    1.000
    O13      O        0.01010    0.19040    0.80670    1.000
    O14      O        0.04260    0.12000    0.56630    1.000
    O15      O        0.18570    0.94190    0.73580    1.000
    Co4      Co       0.87390    0.87890    0.70190    1.000
    P4       P        0.13860    0.85010    0.82160    1.000
    O16      O        0.22240    0.72780    0.82680    1.000
    O17      O        0.15210    0.92270    0.92430    1.000
    O18      O        0.98990    0.80960    0.80670    1.000
    O19      O        0.95740    0.88000    0.56630    1.000
    O20      O        0.81430    0.05810    0.73580    1.000
    Co5      Co       0.62110    0.62610    0.20190    1.000
    P5       P        0.64990    0.36140    0.32160    1.000
    O21      O        0.77220    0.27760    0.32680    1.000
    O22      O        0.57730    0.34790    0.42430    1.000
    O23      O        0.69040    0.51010    0.30670    1.000
    O24      O        0.62000    0.54260    0.06630    1.000
    O25      O        0.44190    0.68570    0.23580    1.000
    Co6      Co       0.37890    0.37390    0.20190    1.000
    P6       P        0.35010    0.63860    0.32160    1.000
    O26      O        0.22780    0.72240    0.32680    1.000
    O27      O        0.42270    0.65210    0.42430    1.000
    O28      O        0.30960    0.48990    0.30670    1.000
    O29      O        0.38000    0.45740    0.06630    1.000
    O30      O        0.55810    0.31430    0.23580    1.000
    Co7      Co       0.37390    0.62110    0.79810    1.000
    P7       P        0.63860    0.64990    0.67840    1.000
    O31      O        0.72240    0.77220    0.67320    1.000
    O32      O        0.65210    0.57730    0.57570    1.000
    O33      O        0.48990    0.69040    0.69330    1.000
    O34      O        0.45740    0.62000    0.93370    1.000
    O35      O        0.31430    0.44190    0.76420    1.000
    Co8      Co       0.62610    0.37890    0.79810    1.000
    P8       P        0.36140    0.35010    0.67840    1.000
    O36      O        0.27760    0.22780    0.67320    1.000
    O37      O        0.34790    0.42270    0.57570    1.000
    O38      O        0.51010    0.30960    0.69330    1.000
    O39      O        0.54260    0.38000    0.93370    1.000
    O40      O        0.68570    0.55810    0.76420    1.000
    Co9      Co       0.00000    0.00000    0.00000    1.000
    Co10     Co       0.50000    0.50000    0.50000    1.000
    P9       P        0.00000    0.00000    0.50000    1.000
    P10      P        0.50000    0.50000    0.00000    1.000
