# CIF file generated by openbabel 3.1.0, see https://openbabel.org
data_I
_chemical_name_common 'image0'
_cell_length_a 17.327
_cell_length_b 17.327
_cell_length_c 7.7288
_cell_angle_alpha 90
_cell_angle_beta 90
_cell_angle_gamma 90
_space_group_name_H-M_alt 'P 1'
_space_group_name_Hall 'P 1'
loop_
    _symmetry_equiv_pos_as_xyz
    x,y,z
loop_
    _atom_site_label
    _atom_site_type_symbol
    _atom_site_fract_x
    _atom_site_fract_y
    _atom_site_fract_z
    _atom_site_occupancy
    N1       N        0.00159    0.34230    0.96240    1.000
    C1       C        0.99460    0.45290    0.70290    1.000
    N2       N        0.98823    0.51111    0.57260    1.000
    C2       C        0.94250    0.45400    0.83720    1.000
    H1       H        0.90410    0.49300    0.84380    1.000
    C3       C        0.94710    0.39730    0.96190    1.000
    H2       H        0.90980    0.39710    0.05200    1.000
    C4       C        0.05350    0.34410    0.83490    1.000
    H3       H        0.09320    0.30640    0.83520    1.000
    C5       C        0.05280    0.39760    0.70310    1.000
    H4       H        0.09100    0.39670    0.61490    1.000
    N3       N        0.50159    0.84230    0.46240    1.000
    C6       C        0.49460    0.95290    0.20290    1.000
    N4       N        0.48823    0.01111    0.07260    1.000
    C7       C        0.44250    0.95400    0.33720    1.000
    H5       H        0.40410    0.99300    0.34380    1.000
    C8       C        0.44710    0.89730    0.46190    1.000
    H6       H        0.40980    0.89710    0.55200    1.000
    C9       C        0.55350    0.84410    0.33490    1.000
    H7       H        0.59320    0.80640    0.33520    1.000
    C10      C        0.55280    0.89760    0.20310    1.000
    H8       H        0.59100    0.89670    0.11490    1.000
    N5       N        0.49841    0.65770    0.46240    1.000
    C11      C        0.50540    0.54710    0.20290    1.000
    N6       N        0.51177    0.48889    0.07260    1.000
    C12      C        0.55750    0.54600    0.33720    1.000
    H9       H        0.59590    0.50700    0.34380    1.000
    C13      C        0.55290    0.60270    0.46190    1.000
    H10      H        0.59020    0.60290    0.55200    1.000
    C14      C        0.44650    0.65590    0.33490    1.000
    H11      H        0.40680    0.69360    0.33520    1.000
    C15      C        0.44720    0.60240    0.20310    1.000
    H12      H        0.40900    0.60330    0.11490    1.000
    N7       N        0.99841    0.15770    0.96240    1.000
    C16      C        0.00540    0.04710    0.70290    1.000
    N8       N        0.01177    0.98889    0.57260    1.000
    C17      C        0.05750    0.04600    0.83720    1.000
    H13      H        0.09590    0.00700    0.84380    1.000
    C18      C        0.05290    0.10270    0.96190    1.000
    H14      H        0.09020    0.10290    0.05200    1.000
    C19      C        0.94650    0.15590    0.83490    1.000
    H15      H        0.90680    0.19360    0.83520    1.000
    C20      C        0.94720    0.10240    0.70310    1.000
    H16      H        0.90900    0.10330    0.61490    1.000
    N9       N        0.40770    0.25159    0.21240    1.000
    C21      C        0.29710    0.24460    0.95290    1.000
    N10      N        0.23889    0.23823    0.82260    1.000
    C22      C        0.29600    0.19250    0.08720    1.000
    H17      H        0.25700    0.15410    0.09380    1.000
    C23      C        0.35270    0.19710    0.21190    1.000
    H18      H        0.35290    0.15980    0.30200    1.000
    C24      C        0.40590    0.30350    0.08490    1.000
    H19      H        0.44360    0.34320    0.08520    1.000
    C25      C        0.35240    0.30280    0.95310    1.000
    H20      H        0.35330    0.34100    0.86490    1.000
    N11      N        0.90770    0.75159    0.71240    1.000
    C26      C        0.79710    0.74460    0.45290    1.000
    N12      N        0.73889    0.73823    0.32260    1.000
    C27      C        0.79600    0.69250    0.58720    1.000
    H21      H        0.75700    0.65410    0.59380    1.000
    C28      C        0.85270    0.69710    0.71190    1.000
    H22      H        0.85290    0.65980    0.80200    1.000
    C29      C        0.90590    0.80350    0.58490    1.000
    H23      H        0.94360    0.84320    0.58520    1.000
    C30      C        0.85240    0.80280    0.45310    1.000
    H24      H        0.85330    0.84100    0.36490    1.000
    N13      N        0.09230    0.74841    0.71240    1.000
    C31      C        0.20290    0.75540    0.45290    1.000
    N14      N        0.26111    0.76177    0.32260    1.000
    C32      C        0.20400    0.80750    0.58720    1.000
    H25      H        0.24300    0.84590    0.59380    1.000
    C33      C        0.14730    0.80290    0.71190    1.000
    H26      H        0.14710    0.84020    0.80200    1.000
    C34      C        0.09410    0.69650    0.58490    1.000
    H27      H        0.05640    0.65680    0.58520    1.000
    C35      C        0.14760    0.69720    0.45310    1.000
    H28      H        0.14670    0.65900    0.36490    1.000
    N15      N        0.59230    0.24841    0.21240    1.000
    C36      C        0.70290    0.25540    0.95290    1.000
    N16      N        0.76111    0.26177    0.82260    1.000
    C37      C        0.70400    0.30750    0.08720    1.000
    H29      H        0.74300    0.34590    0.09380    1.000
    C38      C        0.64730    0.30290    0.21190    1.000
    H30      H        0.64710    0.34020    0.30200    1.000
    C39      C        0.59410    0.19650    0.08490    1.000
    H31      H        0.55640    0.15680    0.08520    1.000
    C40      C        0.64760    0.19720    0.95310    1.000
    H32      H        0.64670    0.15900    0.86490    1.000
    N17      N        0.99841    0.65770    0.03760    1.000
    C41      C        0.00540    0.54710    0.29710    1.000
    N18      N        0.01177    0.48889    0.42740    1.000
    C42      C        0.05750    0.54600    0.16280    1.000
    H33      H        0.09590    0.50700    0.15620    1.000
    C43      C        0.05290    0.60270    0.03810    1.000
    H34      H        0.09020    0.60290    0.94800    1.000
    C44      C        0.94650    0.65590    0.16510    1.000
    H35      H        0.90680    0.69360    0.16480    1.000
    C45      C        0.94720    0.60240    0.29690    1.000
    H36      H        0.90900    0.60330    0.38510    1.000
    N19      N        0.49841    0.15770    0.53760    1.000
    C46      C        0.50540    0.04710    0.79710    1.000
    N20      N        0.51177    0.98889    0.92740    1.000
    C47      C        0.55750    0.04600    0.66280    1.000
    H37      H        0.59590    0.00700    0.65620    1.000
    C48      C        0.55290    0.10270    0.53810    1.000
    H38      H        0.59020    0.10290    0.44800    1.000
    C49      C        0.44650    0.15590    0.66510    1.000
    H39      H        0.40680    0.19360    0.66480    1.000
    C50      C        0.44720    0.10240    0.79690    1.000
    H40      H        0.40900    0.10330    0.88510    1.000
    N21      N        0.50159    0.34230    0.53760    1.000
    C51      C        0.49460    0.45290    0.79710    1.000
    N22      N        0.48823    0.51111    0.92740    1.000
    C52      C        0.44250    0.45400    0.66280    1.000
    H41      H        0.40410    0.49300    0.65620    1.000
    C53      C        0.44710    0.39730    0.53810    1.000
    H42      H        0.40980    0.39710    0.44800    1.000
    C54      C        0.55350    0.34410    0.66510    1.000
    H43      H        0.59320    0.30640    0.66480    1.000
    C55      C        0.55280    0.39760    0.79690    1.000
    H44      H        0.59100    0.39670    0.88510    1.000
    N23      N        0.00159    0.84230    0.03760    1.000
    C56      C        0.99460    0.95290    0.29710    1.000
    N24      N        0.98823    0.01111    0.42740    1.000
    C57      C        0.94250    0.95400    0.16280    1.000
    H45      H        0.90410    0.99300    0.15620    1.000
    C58      C        0.94710    0.89730    0.03810    1.000
    H46      H        0.90980    0.89710    0.94800    1.000
    C59      C        0.05350    0.84410    0.16510    1.000
    H47      H        0.09320    0.80640    0.16480    1.000
    C60      C        0.05280    0.89760    0.29690    1.000
    H48      H        0.09100    0.89670    0.38510    1.000
    N25      N        0.59230    0.74841    0.78760    1.000
    C61      C        0.70290    0.75540    0.04710    1.000
    N26      N        0.76111    0.76177    0.17740    1.000
    C62      C        0.70400    0.80750    0.91280    1.000
    H49      H        0.74300    0.84590    0.90620    1.000
    C63      C        0.64730    0.80290    0.78810    1.000
    H50      H        0.64710    0.84020    0.69800    1.000
    C64      C        0.59410    0.69650    0.91510    1.000
    H51      H        0.55640    0.65680    0.91480    1.000
    C65      C        0.64760    0.69720    0.04690    1.000
    H52      H        0.64670    0.65900    0.13510    1.000
    N27      N        0.09230    0.24841    0.28760    1.000
    C66      C        0.20290    0.25540    0.54710    1.000
    N28      N        0.26111    0.26177    0.67740    1.000
    C67      C        0.20400    0.30750    0.41280    1.000
    H53      H        0.24300    0.34590    0.40620    1.000
    C68      C        0.14730    0.30290    0.28810    1.000
    H54      H        0.14710    0.34020    0.19800    1.000
    C69      C        0.09410    0.19650    0.41510    1.000
    H55      H        0.05640    0.15680    0.41480    1.000
    C70      C        0.14760    0.19720    0.54690    1.000
    H56      H        0.14670    0.15900    0.63510    1.000
    N29      N        0.90770    0.25159    0.28760    1.000
    C71      C        0.79710    0.24460    0.54710    1.000
    N30      N        0.73889    0.23823    0.67740    1.000
    C72      C        0.79600    0.19250    0.41280    1.000
    H57      H        0.75700    0.15410    0.40620    1.000
    C73      C        0.85270    0.19710    0.28810    1.000
    H58      H        0.85290    0.15980    0.19800    1.000
    C74      C        0.90590    0.30350    0.41510    1.000
    H59      H        0.94360    0.34320    0.41480    1.000
    C75      C        0.85240    0.30280    0.54690    1.000
    H60      H        0.85330    0.34100    0.63510    1.000
    N31      N        0.40770    0.75159    0.78760    1.000
    C76      C        0.29710    0.74460    0.04710    1.000
    N32      N        0.23889    0.73823    0.17740    1.000
    C77      C        0.29600    0.69250    0.91280    1.000
    H61      H        0.25700    0.65410    0.90620    1.000
    C78      C        0.35270    0.69710    0.78810    1.000
    H62      H        0.35290    0.65980    0.69800    1.000
    C79      C        0.40590    0.80350    0.91510    1.000
    H63      H        0.44360    0.84320    0.91480    1.000
    C80      C        0.35240    0.80280    0.04690    1.000
    H64      H        0.35330    0.84100    0.13510    1.000
    Cu1      Cu       0.00000    0.25000    0.12500    1.000
    Cu2      Cu       0.50000    0.75000    0.62500    1.000
    Cu3      Cu       0.50000    0.25000    0.37500    1.000
    Cu4      Cu       0.00000    0.75000    0.87500    1.000
