# CIF file generated by openbabel 3.1.0, see https://openbabel.org
data_I
_chemical_name_common 'image0'
_cell_length_a 6.9737
_cell_length_b 21.963
_cell_length_c 23.279
_cell_angle_alpha 90
_cell_angle_beta 90
_cell_angle_gamma 90
_space_group_name_H-M_alt 'P 1'
_space_group_name_Hall 'P 1'
loop_
    _symmetry_equiv_pos_as_xyz
    x,y,z
loop_
    _atom_site_label
    _atom_site_type_symbol
    _atom_site_fract_x
    _atom_site_fract_y
    _atom_site_fract_z
    _atom_site_occupancy
    Pr1      Pr       0.57816    0.23208    0.05066    1.000
    O1       O        0.59510    0.30910    0.65130    1.000
    O2       O        0.56330    0.20980    0.64180    1.000
    C1       C        0.57750    0.25660    0.67360    1.000
    C2       C        0.57700    0.25030    0.73790    1.000
    C3       C        0.56710    0.19180    0.76100    1.000
    H1       H        0.55960    0.15760    0.73750    1.000
    C4       C        0.56880    0.18670    0.82010    1.000
    N1       N        0.51400    0.12640    0.84410    1.000
    O3       O        0.55900    0.11660    0.89440    1.000
    O4       O        0.43900    0.08610    0.81580    1.000
    C5       C        0.57320    0.23610    0.85750    1.000
    C6       C        0.58550    0.29450    0.83280    1.000
    H2       H        0.59470    0.32910    0.85570    1.000
    C7       C        0.58360    0.29890    0.77270    1.000
    H3       H        0.58710    0.33740    0.75620    1.000
    C8       C        0.57190    0.23200    0.92050    1.000
    O5       O        0.41580    0.22540    0.94670    1.000
    O6       O        0.72680    0.23980    0.94741    1.000
    O7       O        0.29460    0.35230    0.96180    1.000
    O8       O        0.54750    0.33570    0.01900    1.000
    C9       C        0.43100    0.37000    0.99260    1.000
    C10      C        0.46420    0.43800    0.99790    1.000
    C11      C        0.57860    0.46170    0.03940    1.000
    H4       H        0.63270    0.43580    0.06660    1.000
    C12      C        0.38340    0.47630    0.95760    1.000
    H5       H        0.30440    0.46090    0.92890    1.000
    N2       N        0.61400    0.12530    0.84410    1.000
    O9       O        0.64100    0.12010    0.89540    1.000
    O10      O        0.61400    0.08030    0.81210    1.000
    Pr2      Pr       0.92184    0.76792    0.55066    1.000
    O11      O        0.90490    0.69090    0.15130    1.000
    O12      O        0.93670    0.79020    0.14180    1.000
    C13      C        0.92250    0.74340    0.17360    1.000
    C14      C        0.92300    0.74970    0.23790    1.000
    C15      C        0.93290    0.80820    0.26100    1.000
    H6       H        0.94040    0.84240    0.23750    1.000
    C16      C        0.93120    0.81330    0.32010    1.000
    N3       N        0.98600    0.87360    0.34410    1.000
    O13      O        0.94100    0.88340    0.39440    1.000
    O14      O        0.06100    0.91390    0.31580    1.000
    C17      C        0.92680    0.76390    0.35750    1.000
    C18      C        0.91450    0.70550    0.33280    1.000
    H7       H        0.90530    0.67090    0.35570    1.000
    C19      C        0.91640    0.70110    0.27270    1.000
    H8       H        0.91290    0.66260    0.25620    1.000
    C20      C        0.92810    0.76800    0.42050    1.000
    O15      O        0.08420    0.77460    0.44670    1.000
    O16      O        0.77320    0.76020    0.44741    1.000
    O17      O        0.20540    0.64770    0.46180    1.000
    O18      O        0.95250    0.66430    0.51900    1.000
    C21      C        0.06900    0.63000    0.49260    1.000
    C22      C        0.03580    0.56200    0.49790    1.000
    C23      C        0.92140    0.53830    0.53940    1.000
    H9       H        0.86730    0.56420    0.56660    1.000
    C24      C        0.11660    0.52370    0.45760    1.000
    H10      H        0.19560    0.53910    0.42890    1.000
    N4       N        0.88600    0.87470    0.34410    1.000
    O19      O        0.85900    0.87990    0.39540    1.000
    O20      O        0.88600    0.91970    0.31210    1.000
    Pr3      Pr       0.42184    0.73208    0.44934    1.000
    O21      O        0.40490    0.80910    0.84870    1.000
    O22      O        0.43670    0.70980    0.85820    1.000
    C25      C        0.42250    0.75660    0.82640    1.000
    C26      C        0.42300    0.75030    0.76210    1.000
    C27      C        0.43290    0.69180    0.73900    1.000
    H11      H        0.44040    0.65760    0.76250    1.000
    C28      C        0.43120    0.68670    0.67990    1.000
    N5       N        0.48600    0.62640    0.65590    1.000
    O23      O        0.44100    0.61660    0.60560    1.000
    O24      O        0.56100    0.58610    0.68420    1.000
    C29      C        0.42680    0.73610    0.64250    1.000
    C30      C        0.41450    0.79450    0.66720    1.000
    H12      H        0.40530    0.82910    0.64430    1.000
    C31      C        0.41640    0.79890    0.72730    1.000
    H13      H        0.41290    0.83740    0.74380    1.000
    C32      C        0.42810    0.73200    0.57950    1.000
    O25      O        0.58420    0.72540    0.55330    1.000
    O26      O        0.27320    0.73980    0.55259    1.000
    O27      O        0.70540    0.85230    0.53820    1.000
    O28      O        0.45250    0.83570    0.48100    1.000
    C33      C        0.56900    0.87000    0.50740    1.000
    C34      C        0.53580    0.93800    0.50210    1.000
    C35      C        0.42140    0.96170    0.46060    1.000
    H14      H        0.36730    0.93580    0.43340    1.000
    C36      C        0.61660    0.97630    0.54240    1.000
    H15      H        0.69560    0.96090    0.57110    1.000
    N6       N        0.38600    0.62530    0.65590    1.000
    O29      O        0.35900    0.62010    0.60460    1.000
    O30      O        0.38600    0.58030    0.68790    1.000
    Pr4      Pr       0.07816    0.26792    0.94934    1.000
    O31      O        0.09510    0.19090    0.34870    1.000
    O32      O        0.06330    0.29020    0.35820    1.000
    C37      C        0.07750    0.24340    0.32640    1.000
    C38      C        0.07700    0.24970    0.26210    1.000
    C39      C        0.06710    0.30820    0.23900    1.000
    H16      H        0.05960    0.34240    0.26250    1.000
    C40      C        0.06880    0.31330    0.17990    1.000
    N7       N        0.01400    0.37360    0.15590    1.000
    O33      O        0.05900    0.38340    0.10560    1.000
    O34      O        0.93900    0.41390    0.18420    1.000
    C41      C        0.07320    0.26390    0.14250    1.000
    C42      C        0.08550    0.20550    0.16720    1.000
    H17      H        0.09470    0.17090    0.14430    1.000
    C43      C        0.08360    0.20110    0.22730    1.000
    H18      H        0.08710    0.16260    0.24380    1.000
    C44      C        0.07190    0.26800    0.07950    1.000
    O35      O        0.91580    0.27460    0.05330    1.000
    O36      O        0.22680    0.26020    0.05259    1.000
    O37      O        0.79460    0.14770    0.03820    1.000
    O38      O        0.04750    0.16430    0.98100    1.000
    C45      C        0.93100    0.13000    0.00740    1.000
    C46      C        0.96420    0.06200    0.00210    1.000
    C47      C        0.07860    0.03830    0.96060    1.000
    H19      H        0.13270    0.06420    0.93340    1.000
    C48      C        0.88340    0.02370    0.04240    1.000
    H20      H        0.80440    0.03910    0.07110    1.000
    N8       N        0.11400    0.37470    0.15590    1.000
    O39      O        0.14100    0.37990    0.10460    1.000
    O40      O        0.11400    0.41970    0.18790    1.000
    Pr5      Pr       0.42184    0.76792    0.94934    1.000
    O41      O        0.40490    0.69090    0.34870    1.000
    O42      O        0.43670    0.79020    0.35820    1.000
    C49      C        0.42250    0.74340    0.32640    1.000
    C50      C        0.42300    0.74970    0.26210    1.000
    C51      C        0.43290    0.80820    0.23900    1.000
    H21      H        0.44040    0.84240    0.26250    1.000
    C52      C        0.43120    0.81330    0.17990    1.000
    N9       N        0.48600    0.87360    0.15590    1.000
    O43      O        0.44100    0.88340    0.10560    1.000
    O44      O        0.56100    0.91390    0.18420    1.000
    C53      C        0.42680    0.76390    0.14250    1.000
    C54      C        0.41450    0.70550    0.16720    1.000
    H22      H        0.40530    0.67090    0.14430    1.000
    C55      C        0.41640    0.70110    0.22730    1.000
    H23      H        0.41290    0.66260    0.24380    1.000
    C56      C        0.42810    0.76800    0.07950    1.000
    O45      O        0.58420    0.77460    0.05330    1.000
    O46      O        0.27320    0.76020    0.05259    1.000
    O47      O        0.70540    0.64770    0.03820    1.000
    O48      O        0.45250    0.66430    0.98100    1.000
    C57      C        0.56900    0.63000    0.00740    1.000
    C58      C        0.53580    0.56200    0.00210    1.000
    C59      C        0.42140    0.53830    0.96060    1.000
    H24      H        0.36730    0.56420    0.93340    1.000
    C60      C        0.61660    0.52370    0.04240    1.000
    H25      H        0.69560    0.53910    0.07110    1.000
    N10      N        0.38600    0.87470    0.15590    1.000
    O49      O        0.35900    0.87990    0.10460    1.000
    O50      O        0.38600    0.91970    0.18790    1.000
    Pr6      Pr       0.07816    0.23208    0.44934    1.000
    O51      O        0.09510    0.30910    0.84870    1.000
    O52      O        0.06330    0.20980    0.85820    1.000
    C61      C        0.07750    0.25660    0.82640    1.000
    C62      C        0.07700    0.25030    0.76210    1.000
    C63      C        0.06710    0.19180    0.73900    1.000
    H26      H        0.05960    0.15760    0.76250    1.000
    C64      C        0.06880    0.18670    0.67990    1.000
    N11      N        0.01400    0.12640    0.65590    1.000
    O53      O        0.05900    0.11660    0.60560    1.000
    O54      O        0.93900    0.08610    0.68420    1.000
    C65      C        0.07320    0.23610    0.64250    1.000
    C66      C        0.08550    0.29450    0.66720    1.000
    H27      H        0.09470    0.32910    0.64430    1.000
    C67      C        0.08360    0.29890    0.72730    1.000
    H28      H        0.08710    0.33740    0.74380    1.000
    C68      C        0.07190    0.23200    0.57950    1.000
    O55      O        0.91580    0.22540    0.55330    1.000
    O56      O        0.22680    0.23980    0.55259    1.000
    O57      O        0.79460    0.35230    0.53820    1.000
    O58      O        0.04750    0.33570    0.48100    1.000
    C69      C        0.93100    0.37000    0.50740    1.000
    C70      C        0.96420    0.43800    0.50210    1.000
    C71      C        0.07860    0.46170    0.46060    1.000
    H29      H        0.13270    0.43580    0.43340    1.000
    C72      C        0.88340    0.47630    0.54240    1.000
    H30      H        0.80440    0.46090    0.57110    1.000
    N12      N        0.11400    0.12530    0.65590    1.000
    O59      O        0.14100    0.12010    0.60460    1.000
    O60      O        0.11400    0.08030    0.68790    1.000
    Pr7      Pr       0.57816    0.26792    0.55066    1.000
    O61      O        0.59510    0.19090    0.15130    1.000
    O62      O        0.56330    0.29020    0.14180    1.000
    C73      C        0.57750    0.24340    0.17360    1.000
    C74      C        0.57700    0.24970    0.23790    1.000
    C75      C        0.56710    0.30820    0.26100    1.000
    H31      H        0.55960    0.34240    0.23750    1.000
    C76      C        0.56880    0.31330    0.32010    1.000
    N13      N        0.51400    0.37360    0.34410    1.000
    O63      O        0.55900    0.38340    0.39440    1.000
    O64      O        0.43900    0.41390    0.31580    1.000
    C77      C        0.57320    0.26390    0.35750    1.000
    C78      C        0.58550    0.20550    0.33280    1.000
    H32      H        0.59470    0.17090    0.35570    1.000
    C79      C        0.58360    0.20110    0.27270    1.000
    H33      H        0.58710    0.16260    0.25620    1.000
    C80      C        0.57190    0.26800    0.42050    1.000
    O65      O        0.41580    0.27460    0.44670    1.000
    O66      O        0.72680    0.26020    0.44741    1.000
    O67      O        0.29460    0.14770    0.46180    1.000
    O68      O        0.54750    0.16430    0.51900    1.000
    C81      C        0.43100    0.13000    0.49260    1.000
    C82      C        0.46420    0.06200    0.49790    1.000
    C83      C        0.57860    0.03830    0.53940    1.000
    H34      H        0.63270    0.06420    0.56660    1.000
    C84      C        0.38340    0.02370    0.45760    1.000
    H35      H        0.30440    0.03910    0.42890    1.000
    N14      N        0.61400    0.37470    0.34410    1.000
    O69      O        0.64100    0.37990    0.39540    1.000
    O70      O        0.61400    0.41970    0.31210    1.000
    Pr8      Pr       0.92184    0.73208    0.05066    1.000
    O71      O        0.90490    0.80910    0.65130    1.000
    O72      O        0.93670    0.70980    0.64180    1.000
    C85      C        0.92250    0.75660    0.67360    1.000
    C86      C        0.92300    0.75030    0.73790    1.000
    C87      C        0.93290    0.69180    0.76100    1.000
    H36      H        0.94040    0.65760    0.73750    1.000
    C88      C        0.93120    0.68670    0.82010    1.000
    N15      N        0.98600    0.62640    0.84410    1.000
    O73      O        0.94100    0.61660    0.89440    1.000
    O74      O        0.06100    0.58610    0.81580    1.000
    C89      C        0.92680    0.73610    0.85750    1.000
    C90      C        0.91450    0.79450    0.83280    1.000
    H37      H        0.90530    0.82910    0.85570    1.000
    C91      C        0.91640    0.79890    0.77270    1.000
    H38      H        0.91290    0.83740    0.75620    1.000
    C92      C        0.92810    0.73200    0.92050    1.000
    O75      O        0.08420    0.72540    0.94670    1.000
    O76      O        0.77320    0.73980    0.94741    1.000
    O77      O        0.20540    0.85230    0.96180    1.000
    O78      O        0.95250    0.83570    0.01900    1.000
    C93      C        0.06900    0.87000    0.99260    1.000
    C94      C        0.03580    0.93800    0.99790    1.000
    C95      C        0.92140    0.96170    0.03940    1.000
    H39      H        0.86730    0.93580    0.06660    1.000
    C96      C        0.11660    0.97630    0.95760    1.000
    H40      H        0.19560    0.96090    0.92890    1.000
    N16      N        0.88600    0.62530    0.84410    1.000
    O79      O        0.85900    0.62010    0.89540    1.000
    O80      O        0.88600    0.58030    0.81210    1.000
