# CIF file generated by openbabel 3.1.0, see https://openbabel.org
data_I
_chemical_name_common 'image0'
_cell_length_a 16.9789
_cell_length_b 21.612
_cell_length_c 13.8905
_cell_angle_alpha 90
_cell_angle_beta 90
_cell_angle_gamma 90
_space_group_name_H-M_alt 'P 1'
_space_group_name_Hall 'P 1'
loop_
    _symmetry_equiv_pos_as_xyz
    x,y,z
loop_
    _atom_site_label
    _atom_site_type_symbol
    _atom_site_fract_x
    _atom_site_fract_y
    _atom_site_fract_z
    _atom_site_occupancy
    C1       C        0.35800    0.16840    0.61930    1.000
    C2       C        0.42560    0.16610    0.54780    1.000
    C3       C        0.43920    0.21430    0.48400    1.000
    C4       C        0.50370    0.21300    0.42110    1.000
    C5       C        0.55570    0.16520    0.42150    1.000
    C6       C        0.54260    0.11610    0.48500    1.000
    C7       C        0.47770    0.11720    0.54830    1.000
    C8       C        0.62710    0.16470    0.35750    1.000
    C9       C        0.13510    0.99670    0.87140    1.000
    C10      C        0.06580    0.99810    0.93830    1.000
    C11      C        0.01760    0.04910    0.94060    1.000
    C12      C        0.95120    0.05010    0.00160    1.000
    F1       F        0.38960    0.26290    0.47870    1.000
    F2       F        0.51170    0.26140    0.36120    1.000
    F3       F        0.59150    0.06730    0.49170    1.000
    F4       F        0.46920    0.06830    0.60830    1.000
    F5       F        0.02840    0.09680    0.88100    1.000
    F6       F        0.90430    0.09990    0.99640    1.000
    In1      In       0.25003    0.08327    0.75091    1.000
    O1       O        0.34450    0.22010    0.65370    1.000
    O2       O        0.32440    0.11810    0.63760    1.000
    O3       O        0.66270    0.21510    0.34470    1.000
    O4       O        0.64560    0.11270    0.32290    1.000
    O5       O        0.17300    0.04530    0.86190    1.000
    O6       O        0.14830    0.94510    0.82960    1.000
    O7       O        0.25460    0.16670    0.82670    1.000
    H1       H        0.27800    0.16690    0.88000    1.000
    C13      C        0.14200    0.83160    0.61930    1.000
    C14      C        0.07440    0.83390    0.54780    1.000
    C15      C        0.06080    0.78570    0.48400    1.000
    C16      C        0.99630    0.78700    0.42110    1.000
    C17      C        0.94430    0.83480    0.42150    1.000
    C18      C        0.95740    0.88390    0.48500    1.000
    C19      C        0.02230    0.88280    0.54830    1.000
    C20      C        0.87290    0.83530    0.35750    1.000
    C21      C        0.36490    0.00330    0.87140    1.000
    C22      C        0.43420    0.00190    0.93830    1.000
    C23      C        0.48240    0.95090    0.94060    1.000
    C24      C        0.54880    0.94990    0.00160    1.000
    F7       F        0.11040    0.73710    0.47870    1.000
    F8       F        0.98830    0.73860    0.36120    1.000
    F9       F        0.90850    0.93270    0.49170    1.000
    F10      F        0.03080    0.93170    0.60830    1.000
    F11      F        0.47160    0.90320    0.88100    1.000
    F12      F        0.59570    0.90010    0.99640    1.000
    In2      In       0.24997    0.91673    0.75091    1.000
    O8       O        0.15550    0.77990    0.65370    1.000
    O9       O        0.17560    0.88190    0.63760    1.000
    O10      O        0.83730    0.78490    0.34470    1.000
    O11      O        0.85440    0.88730    0.32290    1.000
    O12      O        0.32700    0.95470    0.86190    1.000
    O13      O        0.35170    0.05490    0.82960    1.000
    O14      O        0.24540    0.83330    0.82670    1.000
    H2       H        0.22200    0.83310    0.88000    1.000
    C25      C        0.14200    0.66840    0.88070    1.000
    C26      C        0.07440    0.66610    0.95220    1.000
    C27      C        0.06080    0.71430    0.01600    1.000
    C28      C        0.99630    0.71300    0.07890    1.000
    C29      C        0.94430    0.66520    0.07850    1.000
    C30      C        0.95740    0.61610    0.01500    1.000
    C31      C        0.02230    0.61720    0.95170    1.000
    C32      C        0.87290    0.66470    0.14250    1.000
    C33      C        0.36490    0.49670    0.62860    1.000
    C34      C        0.43420    0.49810    0.56170    1.000
    C35      C        0.48240    0.54910    0.55940    1.000
    C36      C        0.54880    0.55010    0.49840    1.000
    F13      F        0.11040    0.76290    0.02130    1.000
    F14      F        0.98830    0.76140    0.13880    1.000
    F15      F        0.90850    0.56730    0.00830    1.000
    F16      F        0.03080    0.56830    0.89170    1.000
    F17      F        0.47160    0.59680    0.61900    1.000
    F18      F        0.59570    0.59990    0.50360    1.000
    In3      In       0.24997    0.58327    0.74909    1.000
    O15      O        0.15550    0.72010    0.84630    1.000
    O16      O        0.17560    0.61810    0.86240    1.000
    O17      O        0.83730    0.71510    0.15530    1.000
    O18      O        0.85440    0.61270    0.17710    1.000
    O19      O        0.32700    0.54530    0.63810    1.000
    O20      O        0.35170    0.44510    0.67040    1.000
    O21      O        0.24540    0.66670    0.67330    1.000
    H3       H        0.22200    0.66690    0.62000    1.000
    C37      C        0.35800    0.33160    0.88070    1.000
    C38      C        0.42560    0.33390    0.95220    1.000
    C39      C        0.43920    0.28570    0.01600    1.000
    C40      C        0.50370    0.28700    0.07890    1.000
    C41      C        0.55570    0.33480    0.07850    1.000
    C42      C        0.54260    0.38390    0.01500    1.000
    C43      C        0.47770    0.38280    0.95170    1.000
    C44      C        0.62710    0.33530    0.14250    1.000
    C45      C        0.13510    0.50330    0.62860    1.000
    C46      C        0.06580    0.50190    0.56170    1.000
    C47      C        0.01760    0.45090    0.55940    1.000
    C48      C        0.95120    0.44990    0.49840    1.000
    F19      F        0.38960    0.23710    0.02130    1.000
    F20      F        0.51170    0.23860    0.13880    1.000
    F21      F        0.59150    0.43270    0.00830    1.000
    F22      F        0.46920    0.43170    0.89170    1.000
    F23      F        0.02840    0.40320    0.61900    1.000
    F24      F        0.90430    0.40010    0.50360    1.000
    In4      In       0.25003    0.41673    0.74909    1.000
    O22      O        0.34450    0.27990    0.84630    1.000
    O23      O        0.32440    0.38190    0.86240    1.000
    O24      O        0.66270    0.28490    0.15530    1.000
    O25      O        0.64560    0.38730    0.17710    1.000
    O26      O        0.17300    0.45470    0.63810    1.000
    O27      O        0.14830    0.55490    0.67040    1.000
    O28      O        0.25460    0.33330    0.67330    1.000
    H4       H        0.27800    0.33310    0.62000    1.000
    C49      C        0.64200    0.83160    0.38070    1.000
    C50      C        0.57440    0.83390    0.45220    1.000
    C51      C        0.56080    0.78570    0.51600    1.000
    C52      C        0.49630    0.78700    0.57890    1.000
    C53      C        0.44430    0.83480    0.57850    1.000
    C54      C        0.45740    0.88390    0.51500    1.000
    C55      C        0.52230    0.88280    0.45170    1.000
    C56      C        0.37290    0.83530    0.64250    1.000
    C57      C        0.86490    0.00330    0.12860    1.000
    C58      C        0.93420    0.00190    0.06170    1.000
    C59      C        0.98240    0.95090    0.05940    1.000
    C60      C        0.04880    0.94990    0.99840    1.000
    F25      F        0.61040    0.73710    0.52130    1.000
    F26      F        0.48830    0.73860    0.63880    1.000
    F27      F        0.40850    0.93270    0.50830    1.000
    F28      F        0.53080    0.93170    0.39170    1.000
    F29      F        0.97160    0.90320    0.11900    1.000
    F30      F        0.09570    0.90010    0.00360    1.000
    In5      In       0.74997    0.91673    0.24909    1.000
    O29      O        0.65550    0.77990    0.34630    1.000
    O30      O        0.67560    0.88190    0.36240    1.000
    O31      O        0.33730    0.78490    0.65530    1.000
    O32      O        0.35440    0.88730    0.67710    1.000
    O33      O        0.82700    0.95470    0.13810    1.000
    O34      O        0.85170    0.05490    0.17040    1.000
    O35      O        0.74540    0.83330    0.17330    1.000
    H5       H        0.72200    0.83310    0.12000    1.000
    C61      C        0.85800    0.16840    0.38070    1.000
    C62      C        0.92560    0.16610    0.45220    1.000
    C63      C        0.93920    0.21430    0.51600    1.000
    C64      C        0.00370    0.21300    0.57890    1.000
    C65      C        0.05570    0.16520    0.57850    1.000
    C66      C        0.04260    0.11610    0.51500    1.000
    C67      C        0.97770    0.11720    0.45170    1.000
    C68      C        0.12710    0.16470    0.64250    1.000
    C69      C        0.63510    0.99670    0.12860    1.000
    C70      C        0.56580    0.99810    0.06170    1.000
    C71      C        0.51760    0.04910    0.05940    1.000
    C72      C        0.45120    0.05010    0.99840    1.000
    F31      F        0.88960    0.26290    0.52130    1.000
    F32      F        0.01170    0.26140    0.63880    1.000
    F33      F        0.09150    0.06730    0.50830    1.000
    F34      F        0.96920    0.06830    0.39170    1.000
    F35      F        0.52840    0.09680    0.11900    1.000
    F36      F        0.40430    0.09990    0.00360    1.000
    In6      In       0.75003    0.08327    0.24909    1.000
    O36      O        0.84450    0.22010    0.34630    1.000
    O37      O        0.82440    0.11810    0.36240    1.000
    O38      O        0.16270    0.21510    0.65530    1.000
    O39      O        0.14560    0.11270    0.67710    1.000
    O40      O        0.67300    0.04530    0.13810    1.000
    O41      O        0.64830    0.94510    0.17040    1.000
    O42      O        0.75460    0.16670    0.17330    1.000
    H6       H        0.77800    0.16690    0.12000    1.000
    C73      C        0.85800    0.33160    0.11930    1.000
    C74      C        0.92560    0.33390    0.04780    1.000
    C75      C        0.93920    0.28570    0.98400    1.000
    C76      C        0.00370    0.28700    0.92110    1.000
    C77      C        0.05570    0.33480    0.92150    1.000
    C78      C        0.04260    0.38390    0.98500    1.000
    C79      C        0.97770    0.38280    0.04830    1.000
    C80      C        0.12710    0.33530    0.85750    1.000
    C81      C        0.63510    0.50330    0.37140    1.000
    C82      C        0.56580    0.50190    0.43830    1.000
    C83      C        0.51760    0.45090    0.44060    1.000
    C84      C        0.45120    0.44990    0.50160    1.000
    F37      F        0.88960    0.23710    0.97870    1.000
    F38      F        0.01170    0.23860    0.86120    1.000
    F39      F        0.09150    0.43270    0.99170    1.000
    F40      F        0.96920    0.43170    0.10830    1.000
    F41      F        0.52840    0.40320    0.38100    1.000
    F42      F        0.40430    0.40010    0.49640    1.000
    In7      In       0.75003    0.41673    0.25091    1.000
    O43      O        0.84450    0.27990    0.15370    1.000
    O44      O        0.82440    0.38190    0.13760    1.000
    O45      O        0.16270    0.28490    0.84470    1.000
    O46      O        0.14560    0.38730    0.82290    1.000
    O47      O        0.67300    0.45470    0.36190    1.000
    O48      O        0.64830    0.55490    0.32960    1.000
    O49      O        0.75460    0.33330    0.32670    1.000
    H7       H        0.77800    0.33310    0.38000    1.000
    C85      C        0.64200    0.66840    0.11930    1.000
    C86      C        0.57440    0.66610    0.04780    1.000
    C87      C        0.56080    0.71430    0.98400    1.000
    C88      C        0.49630    0.71300    0.92110    1.000
    C89      C        0.44430    0.66520    0.92150    1.000
    C90      C        0.45740    0.61610    0.98500    1.000
    C91      C        0.52230    0.61720    0.04830    1.000
    C92      C        0.37290    0.66470    0.85750    1.000
    C93      C        0.86490    0.49670    0.37140    1.000
    C94      C        0.93420    0.49810    0.43830    1.000
    C95      C        0.98240    0.54910    0.44060    1.000
    C96      C        0.04880    0.55010    0.50160    1.000
    F43      F        0.61040    0.76290    0.97870    1.000
    F44      F        0.48830    0.76140    0.86120    1.000
    F45      F        0.40850    0.56730    0.99170    1.000
    F46      F        0.53080    0.56830    0.10830    1.000
    F47      F        0.97160    0.59680    0.38100    1.000
    F48      F        0.09570    0.59990    0.49640    1.000
    In8      In       0.74997    0.58327    0.25091    1.000
    O50      O        0.65550    0.72010    0.15370    1.000
    O51      O        0.67560    0.61810    0.13760    1.000
    O52      O        0.33730    0.71510    0.84470    1.000
    O53      O        0.35440    0.61270    0.82290    1.000
    O54      O        0.82700    0.54530    0.36190    1.000
    O55      O        0.85170    0.44510    0.32960    1.000
    O56      O        0.74540    0.66670    0.32670    1.000
    H8       H        0.72200    0.66690    0.38000    1.000
    In9      In       0.25044    0.25000    0.75000    1.000
    In10     In       0.24956    0.75000    0.75000    1.000
    In11     In       0.74956    0.75000    0.25000    1.000
    In12     In       0.75044    0.25000    0.25000    1.000
    O57      O        0.25000    0.00000    0.67520    1.000
    H9       H        0.25000    0.00000    0.61570    1.000
    O58      O        0.25000    0.50000    0.82480    1.000
    H10      H        0.25000    0.50000    0.88430    1.000
    O59      O        0.75000    0.00000    0.32480    1.000
    H11      H        0.75000    0.00000    0.38430    1.000
    O60      O        0.75000    0.50000    0.17520    1.000
    H12      H        0.75000    0.50000    0.11570    1.000
