# CIF file generated by openbabel 3.1.0, see https://openbabel.org
data_I
_chemical_name_common 'image0'
_cell_length_a 10.318
_cell_length_b 10.981
_cell_length_c 7.066
_cell_angle_alpha 90
_cell_angle_beta 90
_cell_angle_gamma 90
_space_group_name_H-M_alt 'P 1'
_space_group_name_Hall 'P 1'
loop_
    _symmetry_equiv_pos_as_xyz
    x,y,z
loop_
    _atom_site_label
    _atom_site_type_symbol
    _atom_site_fract_x
    _atom_site_fract_y
    _atom_site_fract_z
    _atom_site_occupancy
    Cu1      Cu       0.90166    0.89151    0.61459    1.000
    S1       S        0.09606    0.11115    0.69028    1.000
    O1       O        0.05440    0.23140    0.77750    1.000
    O2       O        0.22900    0.09160    0.77990    1.000
    O3       O        0.00980    0.01460    0.77280    1.000
    Cu2      Cu       0.59834    0.60849    0.61459    1.000
    S2       S        0.40394    0.38885    0.69028    1.000
    O4       O        0.44560    0.26860    0.77750    1.000
    O5       O        0.27100    0.40840    0.77990    1.000
    O6       O        0.49020    0.48540    0.77280    1.000
    Cu3      Cu       0.59834    0.89151    0.38541    1.000
    S3       S        0.40394    0.11115    0.30972    1.000
    O7       O        0.44560    0.23140    0.22250    1.000
    O8       O        0.27100    0.09160    0.22010    1.000
    O9       O        0.49020    0.01460    0.22720    1.000
    Cu4      Cu       0.90166    0.60849    0.38541    1.000
    S4       S        0.09606    0.38885    0.30972    1.000
    O10      O        0.05440    0.26860    0.22250    1.000
    O11      O        0.22900    0.40840    0.22010    1.000
    O12      O        0.00980    0.48540    0.22720    1.000
    Cu5      Cu       0.09834    0.10849    0.38541    1.000
    S5       S        0.90394    0.88885    0.30972    1.000
    O13      O        0.94560    0.76860    0.22250    1.000
    O14      O        0.77100    0.90840    0.22010    1.000
    O15      O        0.99020    0.98540    0.22720    1.000
    Cu6      Cu       0.40166    0.39151    0.38541    1.000
    S6       S        0.59606    0.61115    0.30972    1.000
    O16      O        0.55440    0.73140    0.22250    1.000
    O17      O        0.72900    0.59160    0.22010    1.000
    O18      O        0.50980    0.51460    0.22720    1.000
    Cu7      Cu       0.40166    0.10849    0.61459    1.000
    S7       S        0.59606    0.88885    0.69028    1.000
    O19      O        0.55440    0.76860    0.77750    1.000
    O20      O        0.72900    0.90840    0.77990    1.000
    O21      O        0.50980    0.98540    0.77280    1.000
    Cu8      Cu       0.09834    0.39151    0.61459    1.000
    S8       S        0.90394    0.61115    0.69028    1.000
    O22      O        0.94560    0.73140    0.77750    1.000
    O23      O        0.77100    0.59160    0.77990    1.000
    O24      O        0.99020    0.51460    0.77280    1.000
    Cd1      Cd       0.25000    0.25000    0.00000    1.000
    Cd2      Cd       0.75000    0.75000    0.00000    1.000
