# CIF file generated by openbabel 3.1.0, see https://openbabel.org
data_I
_chemical_name_common 'image0'
_cell_length_a 27.774
_cell_length_b 13.8933
_cell_length_c 44.585
_cell_angle_alpha 90
_cell_angle_beta 90
_cell_angle_gamma 90
_space_group_name_H-M_alt 'P 1'
_space_group_name_Hall 'P 1'
loop_
    _symmetry_equiv_pos_as_xyz
    x,y,z
loop_
    _atom_site_label
    _atom_site_type_symbol
    _atom_site_fract_x
    _atom_site_fract_y
    _atom_site_fract_z
    _atom_site_occupancy
    Zn1      Zn       0.25844    0.32326    0.18005    1.000
    Zn2      Zn       0.52501    0.62037    0.41474    1.000
    Zn3      Zn       0.04854    0.64696    0.41340    1.000
    I1       I        0.16846    0.32309    0.16770    1.000
    I2       I        0.30023    0.16057    0.18576    1.000
    I3       I        0.57558    0.70797    0.37588    1.000
    I4       I        0.50552    0.69580    0.46582    1.000
    I5       I        0.98311    0.56306    0.38314    1.000
    I6       I        0.05705    0.82852    0.42067    1.000
    C1       C        0.23180    0.43770    0.23299    1.000
    H1       H        0.20140    0.43860    0.22320    1.000
    C2       C        0.23560    0.47520    0.26143    1.000
    H2       H        0.20790    0.49980    0.27130    1.000
    C3       C        0.28020    0.47680    0.27561    1.000
    C4       C        0.31960    0.44330    0.26000    1.000
    H3       H        0.35090    0.44650    0.26850    1.000
    C5       C        0.31260    0.40470    0.23170    1.000
    H4       H        0.33960    0.38040    0.22110    1.000
    C6       C        0.45950    0.56490    0.36444    1.000
    H5       H        0.48910    0.55930    0.35390    1.000
    C7       C        0.41760    0.54920    0.34930    1.000
    H6       H        0.41860    0.53120    0.32880    1.000
    C8       C        0.37320    0.55940    0.36376    1.000
    C9       C        0.37520    0.58170    0.39400    1.000
    H7       H        0.34620    0.58730    0.40520    1.000
    C10      C        0.41880    0.59600    0.40824    1.000
    H8       H        0.41890    0.61200    0.42900    1.000
    C11      C        0.15530    0.61500    0.40908    1.000
    H9       H        0.15500    0.63750    0.42920    1.000
    C12      C        0.19870    0.59640    0.39592    1.000
    H10      H        0.22770    0.60300    0.40710    1.000
    C13      C        0.20020    0.56780    0.36629    1.000
    C14      C        0.15630    0.55510    0.35135    1.000
    H11      H        0.15550    0.53440    0.33100    1.000
    C15      C        0.11450    0.57300    0.36660    1.000
    H12      H        0.08480    0.56350    0.35640    1.000
    C16      C        0.28430    0.50960    0.30744    1.000
    C17      C        0.32760    0.54710    0.34845    1.000
    C18      C        0.24570    0.55130    0.35017    1.000
    C19      C        0.04410    0.49000    0.45870    1.000
    H13      H        0.02950    0.45570    0.44270    1.000
    C20      C        0.05580    0.44190    0.48510    1.000
    H14      H        0.04930    0.37510    0.48700    1.000
    C21      C        0.07660    0.49030    0.50806    1.000
    C22      C        0.08390    0.58920    0.50540    1.000
    H15      H        0.09700    0.62550    0.52150    1.000
    C23      C        0.07170    0.63210    0.47900    1.000
    H16      H        0.07660    0.69960    0.47720    1.000
    C24      C        0.18890    0.63890    0.62400    1.000
    H17      H        0.19270    0.70660    0.62220    1.000
    C25      C        0.16670    0.59090    0.60090    1.000
    H18      H        0.15720    0.62390    0.58320    1.000
    C26      C        0.15850    0.49330    0.60404    1.000
    C27      C        0.17290    0.44970    0.62950    1.000
    H19      H        0.16720    0.38300    0.63260    1.000
    C28      C        0.19640    0.50430    0.65119    1.000
    H20      H        0.20650    0.47270    0.66900    1.000
    C29      C        0.07360    0.06490    0.59980    1.000
    H21      H        0.07610    0.03640    0.61910    1.000
    C30      C        0.08920    0.15870    0.59580    1.000
    H22      H        0.10250    0.19390    0.61210    1.000
    C31      C        0.08510    0.20030    0.56790    1.000
    C32      C        0.06530    0.14760    0.54440    1.000
    H23      H        0.06180    0.17530    0.52500    1.000
    C33      C        0.05120    0.05520    0.54980    1.000
    H24      H        0.03800    0.01880    0.53380    1.000
    C34      C        0.09280    0.43990    0.53560    1.000
    C35      C        0.13240    0.43900    0.57956    1.000
    C36      C        0.09880    0.30330    0.56310    1.000
    N1       N        0.26930    0.40050    0.21880    1.000
    N2       N        0.46070    0.58800    0.39394    1.000
    N3       N        0.11330    0.60320    0.39507    1.000
    N4       N        0.32760    0.52090    0.31940    1.000
    N5       N        0.28750    0.56420    0.36446    1.000
    N6       N        0.24240    0.52350    0.32123    1.000
    N7       N        0.05330    0.58500    0.45551    1.000
    N8       N        0.20560    0.59710    0.64862    1.000
    N9       N        0.05500    0.01310    0.57710    1.000
    N10      N        0.11820    0.49080    0.55616    1.000
    N11      N        0.12440    0.34640    0.58441    1.000
    N12      N        0.08160    0.34670    0.53802    1.000
    Zn4      Zn       0.24156    0.67674    0.68005    1.000
    Zn5      Zn       0.97499    0.37963    0.91474    1.000
    Zn6      Zn       0.45146    0.35304    0.91340    1.000
    I7       I        0.33154    0.67691    0.66770    1.000
    I8       I        0.19977    0.83943    0.68576    1.000
    I9       I        0.92442    0.29203    0.87588    1.000
    I10      I        0.99448    0.30420    0.96582    1.000
    I11      I        0.51689    0.43694    0.88314    1.000
    I12      I        0.44295    0.17148    0.92067    1.000
    C37      C        0.26820    0.56230    0.73299    1.000
    H25      H        0.29860    0.56140    0.72320    1.000
    C38      C        0.26440    0.52480    0.76143    1.000
    H26      H        0.29210    0.50020    0.77130    1.000
    C39      C        0.21980    0.52320    0.77561    1.000
    C40      C        0.18040    0.55670    0.76000    1.000
    H27      H        0.14910    0.55350    0.76850    1.000
    C41      C        0.18740    0.59530    0.73170    1.000
    H28      H        0.16040    0.61960    0.72110    1.000
    C42      C        0.04050    0.43510    0.86444    1.000
    H29      H        0.01090    0.44070    0.85390    1.000
    C43      C        0.08240    0.45080    0.84930    1.000
    H30      H        0.08140    0.46880    0.82880    1.000
    C44      C        0.12680    0.44060    0.86376    1.000
    C45      C        0.12480    0.41830    0.89400    1.000
    H31      H        0.15380    0.41270    0.90520    1.000
    C46      C        0.08120    0.40400    0.90824    1.000
    H32      H        0.08110    0.38800    0.92900    1.000
    C47      C        0.34470    0.38500    0.90908    1.000
    H33      H        0.34500    0.36250    0.92920    1.000
    C48      C        0.30130    0.40360    0.89592    1.000
    H34      H        0.27230    0.39700    0.90710    1.000
    C49      C        0.29980    0.43220    0.86629    1.000
    C50      C        0.34370    0.44490    0.85135    1.000
    H35      H        0.34450    0.46560    0.83100    1.000
    C51      C        0.38550    0.42700    0.86660    1.000
    H36      H        0.41520    0.43650    0.85640    1.000
    C52      C        0.21570    0.49040    0.80744    1.000
    C53      C        0.17240    0.45290    0.84845    1.000
    C54      C        0.25430    0.44870    0.85017    1.000
    C55      C        0.45590    0.51000    0.95870    1.000
    H37      H        0.47050    0.54430    0.94270    1.000
    C56      C        0.44420    0.55810    0.98510    1.000
    H38      H        0.45070    0.62490    0.98700    1.000
    C57      C        0.42340    0.50970    0.00806    1.000
    C58      C        0.41610    0.41080    0.00540    1.000
    H39      H        0.40300    0.37450    0.02150    1.000
    C59      C        0.42830    0.36790    0.97900    1.000
    H40      H        0.42340    0.30040    0.97720    1.000
    C60      C        0.31110    0.36110    0.12400    1.000
    H41      H        0.30730    0.29340    0.12220    1.000
    C61      C        0.33330    0.40910    0.10090    1.000
    H42      H        0.34280    0.37610    0.08320    1.000
    C62      C        0.34150    0.50670    0.10404    1.000
    C63      C        0.32710    0.55030    0.12950    1.000
    H43      H        0.33280    0.61700    0.13260    1.000
    C64      C        0.30360    0.49570    0.15119    1.000
    H44      H        0.29350    0.52730    0.16900    1.000
    C65      C        0.42640    0.93510    0.09980    1.000
    H45      H        0.42390    0.96360    0.11910    1.000
    C66      C        0.41080    0.84130    0.09580    1.000
    H46      H        0.39750    0.80610    0.11210    1.000
    C67      C        0.41490    0.79970    0.06790    1.000
    C68      C        0.43470    0.85240    0.04440    1.000
    H47      H        0.43820    0.82470    0.02500    1.000
    C69      C        0.44880    0.94480    0.04980    1.000
    H48      H        0.46200    0.98120    0.03380    1.000
    C70      C        0.40720    0.56010    0.03560    1.000
    C71      C        0.36760    0.56100    0.07956    1.000
    C72      C        0.40120    0.69670    0.06310    1.000
    N13      N        0.23070    0.59950    0.71880    1.000
    N14      N        0.03930    0.41200    0.89394    1.000
    N15      N        0.38670    0.39680    0.89507    1.000
    N16      N        0.17240    0.47910    0.81940    1.000
    N17      N        0.21250    0.43580    0.86446    1.000
    N18      N        0.25760    0.47650    0.82123    1.000
    N19      N        0.44670    0.41500    0.95551    1.000
    N20      N        0.29440    0.40290    0.14862    1.000
    N21      N        0.44500    0.98690    0.07710    1.000
    N22      N        0.38180    0.50920    0.05616    1.000
    N23      N        0.37560    0.65360    0.08441    1.000
    N24      N        0.41840    0.65330    0.03802    1.000
    Zn7      Zn       0.74156    0.82326    0.31995    1.000
    Zn8      Zn       0.47499    0.12037    0.08526    1.000
    Zn9      Zn       0.95146    0.14696    0.08660    1.000
    I13      I        0.83154    0.82309    0.33230    1.000
    I14      I        0.69977    0.66057    0.31424    1.000
    I15      I        0.42442    0.20797    0.12412    1.000
    I16      I        0.49448    0.19580    0.03418    1.000
    I17      I        0.01689    0.06306    0.11686    1.000
    I18      I        0.94295    0.32852    0.07933    1.000
    C73      C        0.76820    0.93770    0.26701    1.000
    H49      H        0.79860    0.93860    0.27680    1.000
    C74      C        0.76440    0.97520    0.23857    1.000
    H50      H        0.79210    0.99980    0.22870    1.000
    C75      C        0.71980    0.97680    0.22439    1.000
    C76      C        0.68040    0.94330    0.24000    1.000
    H51      H        0.64910    0.94650    0.23150    1.000
    C77      C        0.68740    0.90470    0.26830    1.000
    H52      H        0.66040    0.88040    0.27890    1.000
    C78      C        0.54050    0.06490    0.13556    1.000
    H53      H        0.51090    0.05930    0.14610    1.000
    C79      C        0.58240    0.04920    0.15070    1.000
    H54      H        0.58140    0.03120    0.17120    1.000
    C80      C        0.62680    0.05940    0.13624    1.000
    C81      C        0.62480    0.08170    0.10600    1.000
    H55      H        0.65380    0.08730    0.09480    1.000
    C82      C        0.58120    0.09600    0.09176    1.000
    H56      H        0.58110    0.11200    0.07100    1.000
    C83      C        0.84470    0.11500    0.09092    1.000
    H57      H        0.84500    0.13750    0.07080    1.000
    C84      C        0.80130    0.09640    0.10408    1.000
    H58      H        0.77230    0.10300    0.09290    1.000
    C85      C        0.79980    0.06780    0.13371    1.000
    C86      C        0.84370    0.05510    0.14865    1.000
    H59      H        0.84450    0.03440    0.16900    1.000
    C87      C        0.88550    0.07300    0.13340    1.000
    H60      H        0.91520    0.06350    0.14360    1.000
    C88      C        0.71570    0.00960    0.19256    1.000
    C89      C        0.67240    0.04710    0.15155    1.000
    C90      C        0.75430    0.05130    0.14983    1.000
    C91      C        0.95590    0.99000    0.04130    1.000
    H61      H        0.97050    0.95570    0.05730    1.000
    C92      C        0.94420    0.94190    0.01490    1.000
    H62      H        0.95070    0.87510    0.01300    1.000
    C93      C        0.92340    0.99030    0.99194    1.000
    C94      C        0.91610    0.08920    0.99460    1.000
    H63      H        0.90300    0.12550    0.97850    1.000
    C95      C        0.92830    0.13210    0.02100    1.000
    H64      H        0.92340    0.19960    0.02280    1.000
    C96      C        0.81110    0.13890    0.87600    1.000
    H65      H        0.80730    0.20660    0.87780    1.000
    C97      C        0.83330    0.09090    0.89910    1.000
    H66      H        0.84280    0.12390    0.91680    1.000
    C98      C        0.84150    0.99330    0.89596    1.000
    C99      C        0.82710    0.94970    0.87050    1.000
    H67      H        0.83280    0.88300    0.86740    1.000
    C100     C        0.80360    0.00430    0.84881    1.000
    H68      H        0.79350    0.97270    0.83100    1.000
    C101     C        0.92640    0.56490    0.90020    1.000
    H69      H        0.92390    0.53640    0.88090    1.000
    C102     C        0.91080    0.65870    0.90420    1.000
    H70      H        0.89750    0.69390    0.88790    1.000
    C103     C        0.91490    0.70030    0.93210    1.000
    C104     C        0.93470    0.64760    0.95560    1.000
    H71      H        0.93820    0.67530    0.97500    1.000
    C105     C        0.94880    0.55520    0.95020    1.000
    H72      H        0.96200    0.51880    0.96620    1.000
    C106     C        0.90720    0.93990    0.96440    1.000
    C107     C        0.86760    0.93900    0.92044    1.000
    C108     C        0.90120    0.80330    0.93690    1.000
    N25      N        0.73070    0.90050    0.28120    1.000
    N26      N        0.53930    0.08800    0.10606    1.000
    N27      N        0.88670    0.10320    0.10493    1.000
    N28      N        0.67240    0.02090    0.18060    1.000
    N29      N        0.71250    0.06420    0.13554    1.000
    N30      N        0.75760    0.02350    0.17877    1.000
    N31      N        0.94670    0.08500    0.04449    1.000
    N32      N        0.79440    0.09710    0.85138    1.000
    N33      N        0.94500    0.51310    0.92290    1.000
    N34      N        0.88180    0.99080    0.94384    1.000
    N35      N        0.87560    0.84640    0.91559    1.000
    N36      N        0.91840    0.84670    0.96198    1.000
    Zn10     Zn       0.75844    0.17674    0.81995    1.000
    Zn11     Zn       0.02501    0.87963    0.58526    1.000
    Zn12     Zn       0.54854    0.85304    0.58660    1.000
    I19      I        0.66846    0.17691    0.83230    1.000
    I20      I        0.80023    0.33943    0.81424    1.000
    I21      I        0.07558    0.79203    0.62412    1.000
    I22      I        0.00552    0.80420    0.53418    1.000
    I23      I        0.48311    0.93694    0.61686    1.000
    I24      I        0.55705    0.67148    0.57933    1.000
    C109     C        0.73180    0.06230    0.76701    1.000
    H73      H        0.70140    0.06140    0.77680    1.000
    C110     C        0.73560    0.02480    0.73857    1.000
    H74      H        0.70790    0.00020    0.72870    1.000
    C111     C        0.78020    0.02320    0.72439    1.000
    C112     C        0.81960    0.05670    0.74000    1.000
    H75      H        0.85090    0.05350    0.73150    1.000
    C113     C        0.81260    0.09530    0.76830    1.000
    H76      H        0.83960    0.11960    0.77890    1.000
    C114     C        0.95950    0.93510    0.63556    1.000
    H77      H        0.98910    0.94070    0.64610    1.000
    C115     C        0.91760    0.95080    0.65070    1.000
    H78      H        0.91860    0.96880    0.67120    1.000
    C116     C        0.87320    0.94060    0.63624    1.000
    C117     C        0.87520    0.91830    0.60600    1.000
    H79      H        0.84620    0.91270    0.59480    1.000
    C118     C        0.91880    0.90400    0.59176    1.000
    H80      H        0.91890    0.88800    0.57100    1.000
    C119     C        0.65530    0.88500    0.59092    1.000
    H81      H        0.65500    0.86250    0.57080    1.000
    C120     C        0.69870    0.90360    0.60408    1.000
    H82      H        0.72770    0.89700    0.59290    1.000
    C121     C        0.70020    0.93220    0.63371    1.000
    C122     C        0.65630    0.94490    0.64865    1.000
    H83      H        0.65550    0.96560    0.66900    1.000
    C123     C        0.61450    0.92700    0.63340    1.000
    H84      H        0.58480    0.93650    0.64360    1.000
    C124     C        0.78430    0.99040    0.69256    1.000
    C125     C        0.82760    0.95290    0.65155    1.000
    C126     C        0.74570    0.94870    0.64983    1.000
    C127     C        0.54410    0.01000    0.54130    1.000
    H85      H        0.52950    0.04430    0.55730    1.000
    C128     C        0.55580    0.05810    0.51490    1.000
    H86      H        0.54930    0.12490    0.51300    1.000
    C129     C        0.57660    0.00970    0.49194    1.000
    C130     C        0.58390    0.91080    0.49460    1.000
    H87      H        0.59700    0.87450    0.47850    1.000
    C131     C        0.57170    0.86790    0.52100    1.000
    H88      H        0.57660    0.80040    0.52280    1.000
    C132     C        0.68890    0.86110    0.37600    1.000
    H89      H        0.69270    0.79340    0.37780    1.000
    C133     C        0.66670    0.90910    0.39910    1.000
    H90      H        0.65720    0.87610    0.41680    1.000
    C134     C        0.65850    0.00670    0.39596    1.000
    C135     C        0.67290    0.05030    0.37050    1.000
    H91      H        0.66720    0.11700    0.36740    1.000
    C136     C        0.69640    0.99570    0.34881    1.000
    H92      H        0.70650    0.02730    0.33100    1.000
    C137     C        0.57360    0.43510    0.40020    1.000
    H93      H        0.57610    0.46360    0.38090    1.000
    C138     C        0.58920    0.34130    0.40420    1.000
    H94      H        0.60250    0.30610    0.38790    1.000
    C139     C        0.58510    0.29970    0.43210    1.000
    C140     C        0.56530    0.35240    0.45560    1.000
    H95      H        0.56180    0.32470    0.47500    1.000
    C141     C        0.55120    0.44480    0.45020    1.000
    H96      H        0.53800    0.48120    0.46620    1.000
    C142     C        0.59280    0.06010    0.46440    1.000
    C143     C        0.63240    0.06100    0.42044    1.000
    C144     C        0.59880    0.19670    0.43690    1.000
    N37      N        0.76930    0.09950    0.78120    1.000
    N38      N        0.96070    0.91200    0.60606    1.000
    N39      N        0.61330    0.89680    0.60493    1.000
    N40      N        0.82760    0.97910    0.68060    1.000
    N41      N        0.78750    0.93580    0.63554    1.000
    N42      N        0.74240    0.97650    0.67877    1.000
    N43      N        0.55330    0.91500    0.54449    1.000
    N44      N        0.70560    0.90290    0.35138    1.000
    N45      N        0.55500    0.48690    0.42290    1.000
    N46      N        0.61820    0.00920    0.44384    1.000
    N47      N        0.62440    0.15360    0.41559    1.000
    N48      N        0.58160    0.15330    0.46198    1.000
    Zn13     Zn       0.74156    0.67674    0.81995    1.000
    Zn14     Zn       0.47499    0.37963    0.58526    1.000
    Zn15     Zn       0.95146    0.35304    0.58660    1.000
    I25      I        0.83154    0.67691    0.83230    1.000
    I26      I        0.69977    0.83943    0.81424    1.000
    I27      I        0.42442    0.29203    0.62412    1.000
    I28      I        0.49448    0.30420    0.53418    1.000
    I29      I        0.01689    0.43694    0.61686    1.000
    I30      I        0.94295    0.17148    0.57933    1.000
    C145     C        0.76820    0.56230    0.76701    1.000
    H97      H        0.79860    0.56140    0.77680    1.000
    C146     C        0.76440    0.52480    0.73857    1.000
    H98      H        0.79210    0.50020    0.72870    1.000
    C147     C        0.71980    0.52320    0.72439    1.000
    C148     C        0.68040    0.55670    0.74000    1.000
    H99      H        0.64910    0.55350    0.73150    1.000
    C149     C        0.68740    0.59530    0.76830    1.000
    H100     H        0.66040    0.61960    0.77890    1.000
    C150     C        0.54050    0.43510    0.63556    1.000
    H101     H        0.51090    0.44070    0.64610    1.000
    C151     C        0.58240    0.45080    0.65070    1.000
    H102     H        0.58140    0.46880    0.67120    1.000
    C152     C        0.62680    0.44060    0.63624    1.000
    C153     C        0.62480    0.41830    0.60600    1.000
    H103     H        0.65380    0.41270    0.59480    1.000
    C154     C        0.58120    0.40400    0.59176    1.000
    H104     H        0.58110    0.38800    0.57100    1.000
    C155     C        0.84470    0.38500    0.59092    1.000
    H105     H        0.84500    0.36250    0.57080    1.000
    C156     C        0.80130    0.40360    0.60408    1.000
    H106     H        0.77230    0.39700    0.59290    1.000
    C157     C        0.79980    0.43220    0.63371    1.000
    C158     C        0.84370    0.44490    0.64865    1.000
    H107     H        0.84450    0.46560    0.66900    1.000
    C159     C        0.88550    0.42700    0.63340    1.000
    H108     H        0.91520    0.43650    0.64360    1.000
    C160     C        0.71570    0.49040    0.69256    1.000
    C161     C        0.67240    0.45290    0.65155    1.000
    C162     C        0.75430    0.44870    0.64983    1.000
    C163     C        0.95590    0.51000    0.54130    1.000
    H109     H        0.97050    0.54430    0.55730    1.000
    C164     C        0.94420    0.55810    0.51490    1.000
    H110     H        0.95070    0.62490    0.51300    1.000
    C165     C        0.92340    0.50970    0.49194    1.000
    C166     C        0.91610    0.41080    0.49460    1.000
    H111     H        0.90300    0.37450    0.47850    1.000
    C167     C        0.92830    0.36790    0.52100    1.000
    H112     H        0.92340    0.30040    0.52280    1.000
    C168     C        0.81110    0.36110    0.37600    1.000
    H113     H        0.80730    0.29340    0.37780    1.000
    C169     C        0.83330    0.40910    0.39910    1.000
    H114     H        0.84280    0.37610    0.41680    1.000
    C170     C        0.84150    0.50670    0.39596    1.000
    C171     C        0.82710    0.55030    0.37050    1.000
    H115     H        0.83280    0.61700    0.36740    1.000
    C172     C        0.80360    0.49570    0.34881    1.000
    H116     H        0.79350    0.52730    0.33100    1.000
    C173     C        0.92640    0.93510    0.40020    1.000
    H117     H        0.92390    0.96360    0.38090    1.000
    C174     C        0.91080    0.84130    0.40420    1.000
    H118     H        0.89750    0.80610    0.38790    1.000
    C175     C        0.91490    0.79970    0.43210    1.000
    C176     C        0.93470    0.85240    0.45560    1.000
    H119     H        0.93820    0.82470    0.47500    1.000
    C177     C        0.94880    0.94480    0.45020    1.000
    H120     H        0.96200    0.98120    0.46620    1.000
    C178     C        0.90720    0.56010    0.46440    1.000
    C179     C        0.86760    0.56100    0.42044    1.000
    C180     C        0.90120    0.69670    0.43690    1.000
    N49      N        0.73070    0.59950    0.78120    1.000
    N50      N        0.53930    0.41200    0.60606    1.000
    N51      N        0.88670    0.39680    0.60493    1.000
    N52      N        0.67240    0.47910    0.68060    1.000
    N53      N        0.71250    0.43580    0.63554    1.000
    N54      N        0.75760    0.47650    0.67877    1.000
    N55      N        0.94670    0.41500    0.54449    1.000
    N56      N        0.79440    0.40290    0.35138    1.000
    N57      N        0.94500    0.98690    0.42290    1.000
    N58      N        0.88180    0.50920    0.44384    1.000
    N59      N        0.87560    0.65360    0.41559    1.000
    N60      N        0.91840    0.65330    0.46198    1.000
    Zn16     Zn       0.75844    0.32326    0.31995    1.000
    Zn17     Zn       0.02501    0.62037    0.08526    1.000
    Zn18     Zn       0.54854    0.64696    0.08660    1.000
    I31      I        0.66846    0.32309    0.33230    1.000
    I32      I        0.80023    0.16057    0.31424    1.000
    I33      I        0.07558    0.70797    0.12412    1.000
    I34      I        0.00552    0.69580    0.03418    1.000
    I35      I        0.48311    0.56306    0.11686    1.000
    I36      I        0.55705    0.82852    0.07933    1.000
    C181     C        0.73180    0.43770    0.26701    1.000
    H121     H        0.70140    0.43860    0.27680    1.000
    C182     C        0.73560    0.47520    0.23857    1.000
    H122     H        0.70790    0.49980    0.22870    1.000
    C183     C        0.78020    0.47680    0.22439    1.000
    C184     C        0.81960    0.44330    0.24000    1.000
    H123     H        0.85090    0.44650    0.23150    1.000
    C185     C        0.81260    0.40470    0.26830    1.000
    H124     H        0.83960    0.38040    0.27890    1.000
    C186     C        0.95950    0.56490    0.13556    1.000
    H125     H        0.98910    0.55930    0.14610    1.000
    C187     C        0.91760    0.54920    0.15070    1.000
    H126     H        0.91860    0.53120    0.17120    1.000
    C188     C        0.87320    0.55940    0.13624    1.000
    C189     C        0.87520    0.58170    0.10600    1.000
    H127     H        0.84620    0.58730    0.09480    1.000
    C190     C        0.91880    0.59600    0.09176    1.000
    H128     H        0.91890    0.61200    0.07100    1.000
    C191     C        0.65530    0.61500    0.09092    1.000
    H129     H        0.65500    0.63750    0.07080    1.000
    C192     C        0.69870    0.59640    0.10408    1.000
    H130     H        0.72770    0.60300    0.09290    1.000
    C193     C        0.70020    0.56780    0.13371    1.000
    C194     C        0.65630    0.55510    0.14865    1.000
    H131     H        0.65550    0.53440    0.16900    1.000
    C195     C        0.61450    0.57300    0.13340    1.000
    H132     H        0.58480    0.56350    0.14360    1.000
    C196     C        0.78430    0.50960    0.19256    1.000
    C197     C        0.82760    0.54710    0.15155    1.000
    C198     C        0.74570    0.55130    0.14983    1.000
    C199     C        0.54410    0.49000    0.04130    1.000
    H133     H        0.52950    0.45570    0.05730    1.000
    C200     C        0.55580    0.44190    0.01490    1.000
    H134     H        0.54930    0.37510    0.01300    1.000
    C201     C        0.57660    0.49030    0.99194    1.000
    C202     C        0.58390    0.58920    0.99460    1.000
    H135     H        0.59700    0.62550    0.97850    1.000
    C203     C        0.57170    0.63210    0.02100    1.000
    H136     H        0.57660    0.69960    0.02280    1.000
    C204     C        0.68890    0.63890    0.87600    1.000
    H137     H        0.69270    0.70660    0.87780    1.000
    C205     C        0.66670    0.59090    0.89910    1.000
    H138     H        0.65720    0.62390    0.91680    1.000
    C206     C        0.65850    0.49330    0.89596    1.000
    C207     C        0.67290    0.44970    0.87050    1.000
    H139     H        0.66720    0.38300    0.86740    1.000
    C208     C        0.69640    0.50430    0.84881    1.000
    H140     H        0.70650    0.47270    0.83100    1.000
    C209     C        0.57360    0.06490    0.90020    1.000
    H141     H        0.57610    0.03640    0.88090    1.000
    C210     C        0.58920    0.15870    0.90420    1.000
    H142     H        0.60250    0.19390    0.88790    1.000
    C211     C        0.58510    0.20030    0.93210    1.000
    C212     C        0.56530    0.14760    0.95560    1.000
    H143     H        0.56180    0.17530    0.97500    1.000
    C213     C        0.55120    0.05520    0.95020    1.000
    H144     H        0.53800    0.01880    0.96620    1.000
    C214     C        0.59280    0.43990    0.96440    1.000
    C215     C        0.63240    0.43900    0.92044    1.000
    C216     C        0.59880    0.30330    0.93690    1.000
    N61      N        0.76930    0.40050    0.28120    1.000
    N62      N        0.96070    0.58800    0.10606    1.000
    N63      N        0.61330    0.60320    0.10493    1.000
    N64      N        0.82760    0.52090    0.18060    1.000
    N65      N        0.78750    0.56420    0.13554    1.000
    N66      N        0.74240    0.52350    0.17877    1.000
    N67      N        0.55330    0.58500    0.04449    1.000
    N68      N        0.70560    0.59710    0.85138    1.000
    N69      N        0.55500    0.01310    0.92290    1.000
    N70      N        0.61820    0.49080    0.94384    1.000
    N71      N        0.62440    0.34640    0.91559    1.000
    N72      N        0.58160    0.34670    0.96198    1.000
    Zn19     Zn       0.25844    0.17674    0.68005    1.000
    Zn20     Zn       0.52501    0.87963    0.91474    1.000
    Zn21     Zn       0.04854    0.85304    0.91340    1.000
    I37      I        0.16846    0.17691    0.66770    1.000
    I38      I        0.30023    0.33943    0.68576    1.000
    I39      I        0.57558    0.79203    0.87588    1.000
    I40      I        0.50552    0.80420    0.96582    1.000
    I41      I        0.98311    0.93694    0.88314    1.000
    I42      I        0.05705    0.67148    0.92067    1.000
    C217     C        0.23180    0.06230    0.73299    1.000
    H145     H        0.20140    0.06140    0.72320    1.000
    C218     C        0.23560    0.02480    0.76143    1.000
    H146     H        0.20790    0.00020    0.77130    1.000
    C219     C        0.28020    0.02320    0.77561    1.000
    C220     C        0.31960    0.05670    0.76000    1.000
    H147     H        0.35090    0.05350    0.76850    1.000
    C221     C        0.31260    0.09530    0.73170    1.000
    H148     H        0.33960    0.11960    0.72110    1.000
    C222     C        0.45950    0.93510    0.86444    1.000
    H149     H        0.48910    0.94070    0.85390    1.000
    C223     C        0.41760    0.95080    0.84930    1.000
    H150     H        0.41860    0.96880    0.82880    1.000
    C224     C        0.37320    0.94060    0.86376    1.000
    C225     C        0.37520    0.91830    0.89400    1.000
    H151     H        0.34620    0.91270    0.90520    1.000
    C226     C        0.41880    0.90400    0.90824    1.000
    H152     H        0.41890    0.88800    0.92900    1.000
    C227     C        0.15530    0.88500    0.90908    1.000
    H153     H        0.15500    0.86250    0.92920    1.000
    C228     C        0.19870    0.90360    0.89592    1.000
    H154     H        0.22770    0.89700    0.90710    1.000
    C229     C        0.20020    0.93220    0.86629    1.000
    C230     C        0.15630    0.94490    0.85135    1.000
    H155     H        0.15550    0.96560    0.83100    1.000
    C231     C        0.11450    0.92700    0.86660    1.000
    H156     H        0.08480    0.93650    0.85640    1.000
    C232     C        0.28430    0.99040    0.80744    1.000
    C233     C        0.32760    0.95290    0.84845    1.000
    C234     C        0.24570    0.94870    0.85017    1.000
    C235     C        0.04410    0.01000    0.95870    1.000
    H157     H        0.02950    0.04430    0.94270    1.000
    C236     C        0.05580    0.05810    0.98510    1.000
    H158     H        0.04930    0.12490    0.98700    1.000
    C237     C        0.07660    0.00970    0.00806    1.000
    C238     C        0.08390    0.91080    0.00540    1.000
    H159     H        0.09700    0.87450    0.02150    1.000
    C239     C        0.07170    0.86790    0.97900    1.000
    H160     H        0.07660    0.80040    0.97720    1.000
    C240     C        0.18890    0.86110    0.12400    1.000
    H161     H        0.19270    0.79340    0.12220    1.000
    C241     C        0.16670    0.90910    0.10090    1.000
    H162     H        0.15720    0.87610    0.08320    1.000
    C242     C        0.15850    0.00670    0.10404    1.000
    C243     C        0.17290    0.05030    0.12950    1.000
    H163     H        0.16720    0.11700    0.13260    1.000
    C244     C        0.19640    0.99570    0.15119    1.000
    H164     H        0.20650    0.02730    0.16900    1.000
    C245     C        0.07360    0.43510    0.09980    1.000
    H165     H        0.07610    0.46360    0.11910    1.000
    C246     C        0.08920    0.34130    0.09580    1.000
    H166     H        0.10250    0.30610    0.11210    1.000
    C247     C        0.08510    0.29970    0.06790    1.000
    C248     C        0.06530    0.35240    0.04440    1.000
    H167     H        0.06180    0.32470    0.02500    1.000
    C249     C        0.05120    0.44480    0.04980    1.000
    H168     H        0.03800    0.48120    0.03380    1.000
    C250     C        0.09280    0.06010    0.03560    1.000
    C251     C        0.13240    0.06100    0.07956    1.000
    C252     C        0.09880    0.19670    0.06310    1.000
    N73      N        0.26930    0.09950    0.71880    1.000
    N74      N        0.46070    0.91200    0.89394    1.000
    N75      N        0.11330    0.89680    0.89507    1.000
    N76      N        0.32760    0.97910    0.81940    1.000
    N77      N        0.28750    0.93580    0.86446    1.000
    N78      N        0.24240    0.97650    0.82123    1.000
    N79      N        0.05330    0.91500    0.95551    1.000
    N80      N        0.20560    0.90290    0.14862    1.000
    N81      N        0.05500    0.48690    0.07710    1.000
    N82      N        0.11820    0.00920    0.05616    1.000
    N83      N        0.12440    0.15360    0.08441    1.000
    N84      N        0.08160    0.15330    0.03802    1.000
    Zn22     Zn       0.24156    0.82326    0.18005    1.000
    Zn23     Zn       0.97499    0.12037    0.41474    1.000
    Zn24     Zn       0.45146    0.14696    0.41340    1.000
    I43      I        0.33154    0.82309    0.16770    1.000
    I44      I        0.19977    0.66057    0.18576    1.000
    I45      I        0.92442    0.20797    0.37588    1.000
    I46      I        0.99448    0.19580    0.46582    1.000
    I47      I        0.51689    0.06306    0.38314    1.000
    I48      I        0.44295    0.32852    0.42067    1.000
    C253     C        0.26820    0.93770    0.23299    1.000
    H169     H        0.29860    0.93860    0.22320    1.000
    C254     C        0.26440    0.97520    0.26143    1.000
    H170     H        0.29210    0.99980    0.27130    1.000
    C255     C        0.21980    0.97680    0.27561    1.000
    C256     C        0.18040    0.94330    0.26000    1.000
    H171     H        0.14910    0.94650    0.26850    1.000
    C257     C        0.18740    0.90470    0.23170    1.000
    H172     H        0.16040    0.88040    0.22110    1.000
    C258     C        0.04050    0.06490    0.36444    1.000
    H173     H        0.01090    0.05930    0.35390    1.000
    C259     C        0.08240    0.04920    0.34930    1.000
    H174     H        0.08140    0.03120    0.32880    1.000
    C260     C        0.12680    0.05940    0.36376    1.000
    C261     C        0.12480    0.08170    0.39400    1.000
    H175     H        0.15380    0.08730    0.40520    1.000
    C262     C        0.08120    0.09600    0.40824    1.000
    H176     H        0.08110    0.11200    0.42900    1.000
    C263     C        0.34470    0.11500    0.40908    1.000
    H177     H        0.34500    0.13750    0.42920    1.000
    C264     C        0.30130    0.09640    0.39592    1.000
    H178     H        0.27230    0.10300    0.40710    1.000
    C265     C        0.29980    0.06780    0.36629    1.000
    C266     C        0.34370    0.05510    0.35135    1.000
    H179     H        0.34450    0.03440    0.33100    1.000
    C267     C        0.38550    0.07300    0.36660    1.000
    H180     H        0.41520    0.06350    0.35640    1.000
    C268     C        0.21570    0.00960    0.30744    1.000
    C269     C        0.17240    0.04710    0.34845    1.000
    C270     C        0.25430    0.05130    0.35017    1.000
    C271     C        0.45590    0.99000    0.45870    1.000
    H181     H        0.47050    0.95570    0.44270    1.000
    C272     C        0.44420    0.94190    0.48510    1.000
    H182     H        0.45070    0.87510    0.48700    1.000
    C273     C        0.42340    0.99030    0.50806    1.000
    C274     C        0.41610    0.08920    0.50540    1.000
    H183     H        0.40300    0.12550    0.52150    1.000
    C275     C        0.42830    0.13210    0.47900    1.000
    H184     H        0.42340    0.19960    0.47720    1.000
    C276     C        0.31110    0.13890    0.62400    1.000
    H185     H        0.30730    0.20660    0.62220    1.000
    C277     C        0.33330    0.09090    0.60090    1.000
    H186     H        0.34280    0.12390    0.58320    1.000
    C278     C        0.34150    0.99330    0.60404    1.000
    C279     C        0.32710    0.94970    0.62950    1.000
    H187     H        0.33280    0.88300    0.63260    1.000
    C280     C        0.30360    0.00430    0.65119    1.000
    H188     H        0.29350    0.97270    0.66900    1.000
    C281     C        0.42640    0.56490    0.59980    1.000
    H189     H        0.42390    0.53640    0.61910    1.000
    C282     C        0.41080    0.65870    0.59580    1.000
    H190     H        0.39750    0.69390    0.61210    1.000
    C283     C        0.41490    0.70030    0.56790    1.000
    C284     C        0.43470    0.64760    0.54440    1.000
    H191     H        0.43820    0.67530    0.52500    1.000
    C285     C        0.44880    0.55520    0.54980    1.000
    H192     H        0.46200    0.51880    0.53380    1.000
    C286     C        0.40720    0.93990    0.53560    1.000
    C287     C        0.36760    0.93900    0.57956    1.000
    C288     C        0.40120    0.80330    0.56310    1.000
    N85      N        0.23070    0.90050    0.21880    1.000
    N86      N        0.03930    0.08800    0.39394    1.000
    N87      N        0.38670    0.10320    0.39507    1.000
    N88      N        0.17240    0.02090    0.31940    1.000
    N89      N        0.21250    0.06420    0.36446    1.000
    N90      N        0.25760    0.02350    0.32123    1.000
    N91      N        0.44670    0.08500    0.45551    1.000
    N92      N        0.29440    0.09710    0.64862    1.000
    N93      N        0.44500    0.51310    0.57710    1.000
    N94      N        0.38180    0.99080    0.55616    1.000
    N95      N        0.37560    0.84640    0.58441    1.000
    N96      N        0.41840    0.84670    0.53802    1.000
