# CIF file generated by openbabel 3.1.0, see https://openbabel.org
data_I
_chemical_name_common 'image0'
_cell_length_a 31.717
_cell_length_b 9.4333
_cell_length_c 18.1739
_cell_angle_alpha 90
_cell_angle_beta 119.894
_cell_angle_gamma 90
_space_group_name_H-M_alt 'P 1'
_space_group_name_Hall 'P 1'
loop_
    _symmetry_equiv_pos_as_xyz
    x,y,z
loop_
    _atom_site_label
    _atom_site_type_symbol
    _atom_site_fract_x
    _atom_site_fract_y
    _atom_site_fract_z
    _atom_site_occupancy
    Co1      Co       0.12372    0.81464    0.39208    1.000
    O1       O        0.13920    0.71120    0.31065    1.000
    O2       O        0.22078    0.70760    0.37307    1.000
    O3       O        0.20767    0.39891    0.01773    1.000
    O4       O        0.12833    0.35220    0.96592    1.000
    O5       O        0.14330    0.02580    0.36644    1.000
    O6       O        0.19480    0.89902    0.47516    1.000
    N1       N        0.04677    0.80500    0.30252    1.000
    C1       C        0.17882    0.68360    0.31340    1.000
    C2       C        0.17520    0.61350    0.23579    1.000
    C3       C        0.13241    0.54900    0.17530    1.000
    H1       H        0.10460    0.54980    0.18210    1.000
    C4       C        0.21559    0.60930    0.22518    1.000
    H2       H        0.24520    0.65170    0.26650    1.000
    C5       C        0.16911    0.40550    0.01985    1.000
    C6       C        0.17036    0.48160    0.09382    1.000
    C7       C        0.21317    0.54390    0.15484    1.000
    H3       H        0.24110    0.54170    0.14850    1.000
    C8       C        0.13024    0.48340    0.10500    1.000
    H4       H        0.10090    0.43930    0.06420    1.000
    C9       C        0.18347    0.01470    0.43338    1.000
    C10      C        0.21786    0.13690    0.46752    1.000
    C11      C        0.21258    0.25230    0.41596    1.000
    H5       H        0.18690    0.25390    0.35870    1.000
    C12      C        0.25508    0.13460    0.55160    1.000
    H6       H        0.25840    0.05610    0.58680    1.000
    C13      C        0.01999    0.73820    0.34131    1.000
    H7       H        0.02410    0.79640    0.38980    1.000
    H8       H        0.03370    0.64310    0.36310    1.000
    C14      C        0.03426    0.72470    0.22382    1.000
    H9       H        0.04260    0.62350    0.23800    1.000
    H10      H        0.05370    0.76130    0.19900    1.000
    C15      C        0.02803    0.95160    0.27694    1.000
    H11      H        0.04190    0.99360    0.24370    1.000
    H12      H        0.03840    0.01040    0.32820    1.000
    Co2      Co       0.62372    0.31464    0.39208    1.000
    O7       O        0.63920    0.21120    0.31065    1.000
    O8       O        0.72078    0.20760    0.37307    1.000
    O9       O        0.70767    0.89891    0.01773    1.000
    O10      O        0.62833    0.85220    0.96592    1.000
    O11      O        0.64330    0.52580    0.36644    1.000
    O12      O        0.69480    0.39902    0.47516    1.000
    N2       N        0.54677    0.30500    0.30252    1.000
    C16      C        0.67882    0.18360    0.31340    1.000
    C17      C        0.67520    0.11350    0.23579    1.000
    C18      C        0.63241    0.04900    0.17530    1.000
    H13      H        0.60460    0.04980    0.18210    1.000
    C19      C        0.71559    0.10930    0.22518    1.000
    H14      H        0.74520    0.15170    0.26650    1.000
    C20      C        0.66911    0.90550    0.01985    1.000
    C21      C        0.67036    0.98160    0.09382    1.000
    C22      C        0.71317    0.04390    0.15484    1.000
    H15      H        0.74110    0.04170    0.14850    1.000
    C23      C        0.63024    0.98340    0.10500    1.000
    H16      H        0.60090    0.93930    0.06420    1.000
    C24      C        0.68347    0.51470    0.43338    1.000
    C25      C        0.71786    0.63690    0.46752    1.000
    C26      C        0.71258    0.75230    0.41596    1.000
    H17      H        0.68690    0.75390    0.35870    1.000
    C27      C        0.75508    0.63460    0.55160    1.000
    H18      H        0.75840    0.55610    0.58680    1.000
    C28      C        0.51999    0.23820    0.34131    1.000
    H19      H        0.52410    0.29640    0.38980    1.000
    H20      H        0.53370    0.14310    0.36310    1.000
    C29      C        0.53426    0.22470    0.22382    1.000
    H21      H        0.54260    0.12350    0.23800    1.000
    H22      H        0.55370    0.26130    0.19900    1.000
    C30      C        0.52803    0.45160    0.27694    1.000
    H23      H        0.54190    0.49360    0.24370    1.000
    H24      H        0.53840    0.51040    0.32820    1.000
    Co3      Co       0.87628    0.81464    0.10792    1.000
    O13      O        0.86080    0.71120    0.18935    1.000
    O14      O        0.77922    0.70760    0.12693    1.000
    O15      O        0.79233    0.39891    0.48227    1.000
    O16      O        0.87167    0.35220    0.53408    1.000
    O17      O        0.85670    0.02580    0.13356    1.000
    O18      O        0.80520    0.89902    0.02484    1.000
    N3       N        0.95323    0.80500    0.19748    1.000
    C31      C        0.82118    0.68360    0.18660    1.000
    C32      C        0.82480    0.61350    0.26421    1.000
    C33      C        0.86759    0.54900    0.32470    1.000
    H25      H        0.89540    0.54980    0.31790    1.000
    C34      C        0.78441    0.60930    0.27482    1.000
    H26      H        0.75480    0.65170    0.23350    1.000
    C35      C        0.83089    0.40550    0.48015    1.000
    C36      C        0.82964    0.48160    0.40618    1.000
    C37      C        0.78683    0.54390    0.34516    1.000
    H27      H        0.75890    0.54170    0.35150    1.000
    C38      C        0.86976    0.48340    0.39500    1.000
    H28      H        0.89910    0.43930    0.43580    1.000
    C39      C        0.81653    0.01470    0.06662    1.000
    C40      C        0.78214    0.13690    0.03248    1.000
    C41      C        0.78742    0.25230    0.08404    1.000
    H29      H        0.81310    0.25390    0.14130    1.000
    C42      C        0.74492    0.13460    0.94840    1.000
    H30      H        0.74160    0.05610    0.91320    1.000
    C43      C        0.98001    0.73820    0.15869    1.000
    H31      H        0.97590    0.79640    0.11020    1.000
    H32      H        0.96630    0.64310    0.13690    1.000
    C44      C        0.96574    0.72470    0.27618    1.000
    H33      H        0.95740    0.62350    0.26200    1.000
    H34      H        0.94630    0.76130    0.30100    1.000
    C45      C        0.97197    0.95160    0.22306    1.000
    H35      H        0.95810    0.99360    0.25630    1.000
    H36      H        0.96160    0.01040    0.17180    1.000
    Co4      Co       0.37628    0.31464    0.10792    1.000
    O19      O        0.36080    0.21120    0.18935    1.000
    O20      O        0.27922    0.20760    0.12693    1.000
    O21      O        0.29233    0.89891    0.48227    1.000
    O22      O        0.37167    0.85220    0.53408    1.000
    O23      O        0.35670    0.52580    0.13356    1.000
    O24      O        0.30520    0.39902    0.02484    1.000
    N4       N        0.45323    0.30500    0.19748    1.000
    C46      C        0.32118    0.18360    0.18660    1.000
    C47      C        0.32480    0.11350    0.26421    1.000
    C48      C        0.36759    0.04900    0.32470    1.000
    H37      H        0.39540    0.04980    0.31790    1.000
    C49      C        0.28441    0.10930    0.27482    1.000
    H38      H        0.25480    0.15170    0.23350    1.000
    C50      C        0.33089    0.90550    0.48015    1.000
    C51      C        0.32964    0.98160    0.40618    1.000
    C52      C        0.28683    0.04390    0.34516    1.000
    H39      H        0.25890    0.04170    0.35150    1.000
    C53      C        0.36976    0.98340    0.39500    1.000
    H40      H        0.39910    0.93930    0.43580    1.000
    C54      C        0.31653    0.51470    0.06662    1.000
    C55      C        0.28214    0.63690    0.03248    1.000
    C56      C        0.28742    0.75230    0.08404    1.000
    H41      H        0.31310    0.75390    0.14130    1.000
    C57      C        0.24492    0.63460    0.94840    1.000
    H42      H        0.24160    0.55610    0.91320    1.000
    C58      C        0.48001    0.23820    0.15869    1.000
    H43      H        0.47590    0.29640    0.11020    1.000
    H44      H        0.46630    0.14310    0.13690    1.000
    C59      C        0.46574    0.22470    0.27618    1.000
    H45      H        0.45740    0.12350    0.26200    1.000
    H46      H        0.44630    0.26130    0.30100    1.000
    C60      C        0.47197    0.45160    0.22306    1.000
    H47      H        0.45810    0.49360    0.25630    1.000
    H48      H        0.46160    0.51040    0.17180    1.000
    Co5      Co       0.87628    0.18536    0.60792    1.000
    O25      O        0.86080    0.28880    0.68935    1.000
    O26      O        0.77922    0.29240    0.62693    1.000
    O27      O        0.79233    0.60109    0.98227    1.000
    O28      O        0.87167    0.64780    0.03408    1.000
    O29      O        0.85670    0.97420    0.63356    1.000
    O30      O        0.80520    0.10098    0.52484    1.000
    N5       N        0.95323    0.19500    0.69748    1.000
    C61      C        0.82118    0.31640    0.68660    1.000
    C62      C        0.82480    0.38650    0.76421    1.000
    C63      C        0.86759    0.45100    0.82470    1.000
    H49      H        0.89540    0.45020    0.81790    1.000
    C64      C        0.78441    0.39070    0.77482    1.000
    H50      H        0.75480    0.34830    0.73350    1.000
    C65      C        0.83089    0.59450    0.98015    1.000
    C66      C        0.82964    0.51840    0.90618    1.000
    C67      C        0.78683    0.45610    0.84516    1.000
    H51      H        0.75890    0.45830    0.85150    1.000
    C68      C        0.86976    0.51660    0.89500    1.000
    H52      H        0.89910    0.56070    0.93580    1.000
    C69      C        0.81653    0.98530    0.56662    1.000
    C70      C        0.78214    0.86310    0.53248    1.000
    C71      C        0.78742    0.74770    0.58404    1.000
    H53      H        0.81310    0.74610    0.64130    1.000
    C72      C        0.74492    0.86540    0.44840    1.000
    H54      H        0.74160    0.94390    0.41320    1.000
    C73      C        0.98001    0.26180    0.65869    1.000
    H55      H        0.97590    0.20360    0.61020    1.000
    H56      H        0.96630    0.35690    0.63690    1.000
    C74      C        0.96574    0.27530    0.77618    1.000
    H57      H        0.95740    0.37650    0.76200    1.000
    H58      H        0.94630    0.23870    0.80100    1.000
    C75      C        0.97197    0.04840    0.72306    1.000
    H59      H        0.95810    0.00640    0.75630    1.000
    H60      H        0.96160    0.98960    0.67180    1.000
    Co6      Co       0.37628    0.68536    0.60792    1.000
    O31      O        0.36080    0.78880    0.68935    1.000
    O32      O        0.27922    0.79240    0.62693    1.000
    O33      O        0.29233    0.10109    0.98227    1.000
    O34      O        0.37167    0.14780    0.03408    1.000
    O35      O        0.35670    0.47420    0.63356    1.000
    O36      O        0.30520    0.60098    0.52484    1.000
    N6       N        0.45323    0.69500    0.69748    1.000
    C76      C        0.32118    0.81640    0.68660    1.000
    C77      C        0.32480    0.88650    0.76421    1.000
    C78      C        0.36759    0.95100    0.82470    1.000
    H61      H        0.39540    0.95020    0.81790    1.000
    C79      C        0.28441    0.89070    0.77482    1.000
    H62      H        0.25480    0.84830    0.73350    1.000
    C80      C        0.33089    0.09450    0.98015    1.000
    C81      C        0.32964    0.01840    0.90618    1.000
    C82      C        0.28683    0.95610    0.84516    1.000
    H63      H        0.25890    0.95830    0.85150    1.000
    C83      C        0.36976    0.01660    0.89500    1.000
    H64      H        0.39910    0.06070    0.93580    1.000
    C84      C        0.31653    0.48530    0.56662    1.000
    C85      C        0.28214    0.36310    0.53248    1.000
    C86      C        0.28742    0.24770    0.58404    1.000
    H65      H        0.31310    0.24610    0.64130    1.000
    C87      C        0.24492    0.36540    0.44840    1.000
    H66      H        0.24160    0.44390    0.41320    1.000
    C88      C        0.48001    0.76180    0.65869    1.000
    H67      H        0.47590    0.70360    0.61020    1.000
    H68      H        0.46630    0.85690    0.63690    1.000
    C89      C        0.46574    0.77530    0.77618    1.000
    H69      H        0.45740    0.87650    0.76200    1.000
    H70      H        0.44630    0.73870    0.80100    1.000
    C90      C        0.47197    0.54840    0.72306    1.000
    H71      H        0.45810    0.50640    0.75630    1.000
    H72      H        0.46160    0.48960    0.67180    1.000
    Co7      Co       0.12372    0.18536    0.89208    1.000
    O37      O        0.13920    0.28880    0.81065    1.000
    O38      O        0.22078    0.29240    0.87307    1.000
    O39      O        0.20767    0.60109    0.51773    1.000
    O40      O        0.12833    0.64780    0.46592    1.000
    O41      O        0.14330    0.97420    0.86644    1.000
    O42      O        0.19480    0.10098    0.97516    1.000
    N7       N        0.04677    0.19500    0.80252    1.000
    C91      C        0.17882    0.31640    0.81340    1.000
    C92      C        0.17520    0.38650    0.73579    1.000
    C93      C        0.13241    0.45100    0.67530    1.000
    H73      H        0.10460    0.45020    0.68210    1.000
    C94      C        0.21559    0.39070    0.72518    1.000
    H74      H        0.24520    0.34830    0.76650    1.000
    C95      C        0.16911    0.59450    0.51985    1.000
    C96      C        0.17036    0.51840    0.59382    1.000
    C97      C        0.21317    0.45610    0.65484    1.000
    H75      H        0.24110    0.45830    0.64850    1.000
    C98      C        0.13024    0.51660    0.60500    1.000
    H76      H        0.10090    0.56070    0.56420    1.000
    C99      C        0.18347    0.98530    0.93338    1.000
    C100     C        0.21786    0.86310    0.96752    1.000
    C101     C        0.21258    0.74770    0.91596    1.000
    H77      H        0.18690    0.74610    0.85870    1.000
    C102     C        0.25508    0.86540    0.05160    1.000
    H78      H        0.25840    0.94390    0.08680    1.000
    C103     C        0.01999    0.26180    0.84131    1.000
    H79      H        0.02410    0.20360    0.88980    1.000
    H80      H        0.03370    0.35690    0.86310    1.000
    C104     C        0.03426    0.27530    0.72382    1.000
    H81      H        0.04260    0.37650    0.73800    1.000
    H82      H        0.05370    0.23870    0.69900    1.000
    C105     C        0.02803    0.04840    0.77694    1.000
    H83      H        0.04190    0.00640    0.74370    1.000
    H84      H        0.03840    0.98960    0.82820    1.000
    Co8      Co       0.62372    0.68536    0.89208    1.000
    O43      O        0.63920    0.78880    0.81065    1.000
    O44      O        0.72078    0.79240    0.87307    1.000
    O45      O        0.70767    0.10109    0.51773    1.000
    O46      O        0.62833    0.14780    0.46592    1.000
    O47      O        0.64330    0.47420    0.86644    1.000
    O48      O        0.69480    0.60098    0.97516    1.000
    N8       N        0.54677    0.69500    0.80252    1.000
    C106     C        0.67882    0.81640    0.81340    1.000
    C107     C        0.67520    0.88650    0.73579    1.000
    C108     C        0.63241    0.95100    0.67530    1.000
    H85      H        0.60460    0.95020    0.68210    1.000
    C109     C        0.71559    0.89070    0.72518    1.000
    H86      H        0.74520    0.84830    0.76650    1.000
    C110     C        0.66911    0.09450    0.51985    1.000
    C111     C        0.67036    0.01840    0.59382    1.000
    C112     C        0.71317    0.95610    0.65484    1.000
    H87      H        0.74110    0.95830    0.64850    1.000
    C113     C        0.63024    0.01660    0.60500    1.000
    H88      H        0.60090    0.06070    0.56420    1.000
    C114     C        0.68347    0.48530    0.93338    1.000
    C115     C        0.71786    0.36310    0.96752    1.000
    C116     C        0.71258    0.24770    0.91596    1.000
    H89      H        0.68690    0.24610    0.85870    1.000
    C117     C        0.75508    0.36540    0.05160    1.000
    H90      H        0.75840    0.44390    0.08680    1.000
    C118     C        0.51999    0.76180    0.84131    1.000
    H91      H        0.52410    0.70360    0.88980    1.000
    H92      H        0.53370    0.85690    0.86310    1.000
    C119     C        0.53426    0.77530    0.72382    1.000
    H93      H        0.54260    0.87650    0.73800    1.000
    H94      H        0.55370    0.73870    0.69900    1.000
    C120     C        0.52803    0.54840    0.77694    1.000
    H95      H        0.54190    0.50640    0.74370    1.000
    H96      H        0.53840    0.48960    0.82820    1.000
    Co9      Co       0.25000    0.75000    0.50000    1.000
    Co10     Co       0.75000    0.75000    0.00000    1.000
    Co11     Co       0.75000    0.25000    0.50000    1.000
    Co12     Co       0.25000    0.25000    0.00000    1.000
