# CIF file generated by openbabel 3.1.0, see https://openbabel.org
data_I
_chemical_name_common 'EXOTUH'
_cell_length_a 15.214
_cell_length_b 15.214
_cell_length_c 19.686
_cell_angle_alpha 90
_cell_angle_beta 90
_cell_angle_gamma 120
_space_group_name_H-M_alt 'P 1'
_space_group_name_Hall 'P 1'
loop_
    _symmetry_equiv_pos_as_xyz
    x,y,z
loop_
    _atom_site_label
    _atom_site_type_symbol
    _atom_site_fract_x
    _atom_site_fract_y
    _atom_site_fract_z
    _atom_site_occupancy
    C1       C        0.75490    0.59960    0.25850    1.000
    H2       H        0.69070    0.57240    0.23920    1.000
    C3       C        0.77340    0.54540    0.30780    1.000
    H4       H        0.72160    0.48200    0.32150    1.000
    C5       C        0.86950    0.58610    0.33650    1.000
    C6       C        0.94690    0.68080    0.31600    1.000
    C7       C        0.92840    0.73500    0.26670    1.000
    C8       C        0.83240    0.69440    0.23800    1.000
    H9       H        0.82000    0.73060    0.20500    1.000
    C10      C        0.87300    0.51300    0.37800    1.000
    C11      C        0.00600    0.82930    0.23380    1.000
    C12      C        0.32920    0.96350    0.21900    1.000
    H13      H        0.28540    0.93860    0.25600    1.000
    C14      C        0.41870    0.96160    0.21980    1.000
    H15      H        0.43460    0.93410    0.25680    1.000
    C16      C        0.93480    0.09040    0.99200    1.000
    H17      H        0.99890    0.09680    0.99280    1.000
    C18      C        0.88210    0.07150    0.05190    1.000
    H19      H        0.91300    0.07310    0.09300    1.000
    C20      C        0.78020    0.04970    0.05020    1.000
    C21      C        0.74920    0.06180    0.99060    1.000
    H22      H        0.68400    0.05220    0.98740    1.000
    C23      C        0.80700    0.08760    0.93250    1.000
    H24      H        0.78110    0.09650    0.89190    1.000
    C25      C        0.72100    0.02270    0.11200    1.000
    N26      N        0.89890    0.09980    0.93420    1.000
    N27      N        0.63560    0.02620    0.10930    1.000
    O28      O        0.09200    0.84650    0.23150    1.000
    O29      O        0.90800    0.55200    0.43000    1.000
    O30      O        0.85100    0.41800    0.38700    1.000
    O31      O        0.98230    0.88690    0.21300    1.000
    H32      H        0.41052    0.87951    0.56267    1.000
    C33      C        0.40040    0.15530    0.92517    1.000
    H34      H        0.42760    0.11830    0.90587    1.000
    C35      C        0.45460    0.22800    0.97447    1.000
    H36      H        0.51800    0.23960    0.98817    1.000
    C37      C        0.41390    0.28340    0.00317    1.000
    C38      C        0.31920    0.26610    0.98267    1.000
    C39      C        0.26500    0.19340    0.93337    1.000
    C40      C        0.30560    0.13800    0.90467    1.000
    H41      H        0.26940    0.08940    0.87167    1.000
    C42      C        0.48700    0.36000    0.04467    1.000
    C43      C        0.17070    0.17670    0.90047    1.000
    C44      C        0.03650    0.36570    0.88567    1.000
    H45      H        0.06140    0.34680    0.92267    1.000
    C46      C        0.03840    0.45710    0.88647    1.000
    H47      H        0.06590    0.50050    0.92347    1.000
    C48      C        0.90960    0.84440    0.65867    1.000
    H49      H        0.90320    0.90210    0.65947    1.000
    C50      C        0.92850    0.81060    0.71857    1.000
    H51      H        0.92690    0.83990    0.75967    1.000
    C52      C        0.95030    0.73050    0.71687    1.000
    C53      C        0.93820    0.68740    0.65727    1.000
    H54      H        0.94780    0.63180    0.65407    1.000
    C55      C        0.91240    0.71940    0.59917    1.000
    H56      H        0.90350    0.68460    0.55857    1.000
    C57      C        0.97730    0.69830    0.77867    1.000
    N58      N        0.90020    0.79910    0.60087    1.000
    N59      N        0.97380    0.60940    0.77597    1.000
    O60      O        0.15350    0.24550    0.89817    1.000
    O61      O        0.44800    0.35600    0.09667    1.000
    O62      O        0.58200    0.43300    0.05367    1.000
    O63      O        0.11310    0.09540    0.87967    1.000
    H64      H        0.12049    0.53101    0.22934    1.000
    C65      C        0.84470    0.24510    0.59183    1.000
    H66      H        0.88170    0.30930    0.57253    1.000
    C67      C        0.77200    0.22660    0.64113    1.000
    H68      H        0.76040    0.27840    0.65483    1.000
    C69      C        0.71660    0.13050    0.66983    1.000
    C70      C        0.73390    0.05310    0.64933    1.000
    C71      C        0.80660    0.07160    0.60003    1.000
    C72      C        0.86200    0.16760    0.57133    1.000
    H73      H        0.91060    0.18000    0.53833    1.000
    C74      C        0.64000    0.12700    0.71133    1.000
    C75      C        0.82330    0.99400    0.56713    1.000
    C76      C        0.63430    0.67080    0.55233    1.000
    H77      H        0.65320    0.71460    0.58933    1.000
    C78      C        0.54290    0.58130    0.55313    1.000
    H79      H        0.49950    0.56540    0.59013    1.000
    C80      C        0.15560    0.06520    0.32533    1.000
    H81      H        0.09790    0.00110    0.32613    1.000
    C82      C        0.18940    0.11790    0.38523    1.000
    H83      H        0.16010    0.08700    0.42633    1.000
    C84      C        0.26950    0.21980    0.38353    1.000
    C85      C        0.31260    0.25080    0.32393    1.000
    H86      H        0.36820    0.31600    0.32073    1.000
    C87      C        0.28060    0.19300    0.26583    1.000
    H88      H        0.31540    0.21890    0.22523    1.000
    C89      C        0.30170    0.27900    0.44533    1.000
    N90      N        0.20090    0.10110    0.26753    1.000
    N91      N        0.39060    0.36440    0.44263    1.000
    O92      O        0.75450    0.90800    0.56483    1.000
    O93      O        0.64400    0.09200    0.76333    1.000
    O94      O        0.56700    0.14900    0.72033    1.000
    O95      O        0.90460    0.01770    0.54633    1.000
    H96      H        0.46899    0.58948    0.89601    1.000
    C97      C        0.59960    0.75490    0.74150    1.000
    H98      H        0.57240    0.69070    0.76080    1.000
    C99      C        0.54540    0.77340    0.69220    1.000
    H100     H        0.48200    0.72160    0.67850    1.000
    C101     C        0.58610    0.86950    0.66350    1.000
    C102     C        0.68080    0.94690    0.68400    1.000
    C103     C        0.73500    0.92840    0.73330    1.000
    C104     C        0.69440    0.83240    0.76200    1.000
    H105     H        0.73060    0.82000    0.79500    1.000
    C106     C        0.51300    0.87300    0.62200    1.000
    C107     C        0.82930    0.00600    0.76620    1.000
    C108     C        0.96350    0.32920    0.78100    1.000
    H109     H        0.93860    0.28540    0.74400    1.000
    C110     C        0.96160    0.41870    0.78020    1.000
    H111     H        0.93410    0.43460    0.74320    1.000
    C112     C        0.09040    0.93480    0.00800    1.000
    H113     H        0.09680    0.99890    0.00720    1.000
    C114     C        0.07150    0.88210    0.94810    1.000
    H115     H        0.07310    0.91300    0.90700    1.000
    C116     C        0.04970    0.78020    0.94980    1.000
    C117     C        0.06180    0.74920    0.00940    1.000
    H118     H        0.05220    0.68400    0.01260    1.000
    C119     C        0.08760    0.80700    0.06750    1.000
    H120     H        0.09650    0.78110    0.10810    1.000
    C121     C        0.02270    0.72100    0.88800    1.000
    N122     N        0.09980    0.89890    0.06580    1.000
    N123     N        0.02620    0.63560    0.89070    1.000
    O124     O        0.84650    0.09200    0.76850    1.000
    O125     O        0.55200    0.90800    0.57000    1.000
    O126     O        0.41800    0.85100    0.61300    1.000
    O127     O        0.88690    0.98230    0.78700    1.000
    H128     H        0.87951    0.41052    0.43733    1.000
    C129     C        0.15530    0.40040    0.07483    1.000
    H130     H        0.11830    0.42760    0.09413    1.000
    C131     C        0.22800    0.45460    0.02553    1.000
    H132     H        0.23960    0.51800    0.01183    1.000
    C133     C        0.28340    0.41390    0.99683    1.000
    C134     C        0.26610    0.31920    0.01733    1.000
    C135     C        0.19340    0.26500    0.06663    1.000
    C136     C        0.13800    0.30560    0.09533    1.000
    H137     H        0.08940    0.26940    0.12833    1.000
    C138     C        0.36000    0.48700    0.95533    1.000
    C139     C        0.17670    0.17070    0.09953    1.000
    C140     C        0.36570    0.03650    0.11433    1.000
    H141     H        0.34680    0.06140    0.07733    1.000
    C142     C        0.45710    0.03840    0.11353    1.000
    H143     H        0.50050    0.06590    0.07653    1.000
    C144     C        0.84440    0.90960    0.34133    1.000
    H145     H        0.90210    0.90320    0.34053    1.000
    C146     C        0.81060    0.92850    0.28143    1.000
    H147     H        0.83990    0.92690    0.24033    1.000
    C148     C        0.73050    0.95030    0.28313    1.000
    C149     C        0.68740    0.93820    0.34273    1.000
    H150     H        0.63180    0.94780    0.34593    1.000
    C151     C        0.71940    0.91240    0.40083    1.000
    H152     H        0.68460    0.90350    0.44143    1.000
    C153     C        0.69830    0.97730    0.22133    1.000
    N154     N        0.79910    0.90020    0.39913    1.000
    N155     N        0.60940    0.97380    0.22403    1.000
    O156     O        0.24550    0.15350    0.10183    1.000
    O157     O        0.35600    0.44800    0.90333    1.000
    O158     O        0.43300    0.58200    0.94633    1.000
    O159     O        0.09540    0.11310    0.12033    1.000
    H160     H        0.53101    0.12049    0.77066    1.000
    C161     C        0.24510    0.84470    0.40817    1.000
    H162     H        0.30930    0.88170    0.42747    1.000
    C163     C        0.22660    0.77200    0.35887    1.000
    H164     H        0.27840    0.76040    0.34517    1.000
    C165     C        0.13050    0.71660    0.33017    1.000
    C166     C        0.05310    0.73390    0.35067    1.000
    C167     C        0.07160    0.80660    0.39997    1.000
    C168     C        0.16760    0.86200    0.42867    1.000
    H169     H        0.18000    0.91060    0.46167    1.000
    C170     C        0.12700    0.64000    0.28867    1.000
    C171     C        0.99400    0.82330    0.43287    1.000
    C172     C        0.67080    0.63430    0.44767    1.000
    H173     H        0.71460    0.65320    0.41067    1.000
    C174     C        0.58130    0.54290    0.44687    1.000
    H175     H        0.56540    0.49950    0.40987    1.000
    C176     C        0.06520    0.15560    0.67467    1.000
    H177     H        0.00110    0.09790    0.67387    1.000
    C178     C        0.11790    0.18940    0.61477    1.000
    H179     H        0.08700    0.16010    0.57367    1.000
    C180     C        0.21980    0.26950    0.61647    1.000
    C181     C        0.25080    0.31260    0.67607    1.000
    H182     H        0.31600    0.36820    0.67927    1.000
    C183     C        0.19300    0.28060    0.73417    1.000
    H184     H        0.21890    0.31540    0.77477    1.000
    C185     C        0.27900    0.30170    0.55467    1.000
    N186     N        0.10110    0.20090    0.73247    1.000
    N187     N        0.36440    0.39060    0.55737    1.000
    O188     O        0.90800    0.75450    0.43517    1.000
    O189     O        0.09200    0.64400    0.23667    1.000
    O190     O        0.14900    0.56700    0.27967    1.000
    O191     O        0.01770    0.90460    0.45367    1.000
    H192     H        0.58948    0.46899    0.10399    1.000
    C193     C        0.58050    0.00000    0.16667    1.000
    C194     C        0.48340    0.00000    0.16667    1.000
    Cd195    Cd       0.14365    0.00000    0.16667    1.000
    N196     N        0.30550    0.00000    0.16667    1.000
    N197     N        0.75670    0.00000    0.16667    1.000
    C198     C        0.00000    0.58050    0.83333    1.000
    C199     C        0.00000    0.48340    0.83333    1.000
    Cd200    Cd       0.00000    0.14365    0.83333    1.000
    N201     N        0.00000    0.30550    0.83333    1.000
    N202     N        0.00000    0.75670    0.83333    1.000
    C203     C        0.41950    0.41950    0.50000    1.000
    C204     C        0.51660    0.51660    0.50000    1.000
    Cd205    Cd       0.85635    0.85635    0.50000    1.000
    N206     N        0.69450    0.69450    0.50000    1.000
    N207     N        0.24330    0.24330    0.50000    1.000
