# CIF file generated by openbabel 3.1.0, see https://openbabel.org
data_I
_chemical_name_common 'image0'
_cell_length_a 14.877
_cell_length_b 8.5545
_cell_length_c 7.4081
_cell_angle_alpha 90
_cell_angle_beta 118.778
_cell_angle_gamma 90
_space_group_name_H-M_alt 'P 1'
_space_group_name_Hall 'P 1'
loop_
    _symmetry_equiv_pos_as_xyz
    x,y,z
loop_
    _atom_site_label
    _atom_site_type_symbol
    _atom_site_fract_x
    _atom_site_fract_y
    _atom_site_fract_z
    _atom_site_occupancy
    Cu1      Cu       0.31761    0.68084    0.18184    1.000
    C1       C        0.45860    0.65030    0.23540    1.000
    N1       N        0.25707    0.49930    0.25270    1.000
    C2       C        0.23315    0.38630    0.29880    1.000
    Cu2      Cu       0.81761    0.18084    0.18184    1.000
    C3       C        0.95860    0.15030    0.23540    1.000
    N2       N        0.75707    0.99930    0.25270    1.000
    C4       C        0.73315    0.88630    0.29880    1.000
    Cu3      Cu       0.68239    0.68084    0.31816    1.000
    C5       C        0.54140    0.65030    0.26460    1.000
    N3       N        0.74293    0.49930    0.24730    1.000
    C6       C        0.76685    0.38630    0.20120    1.000
    Cu4      Cu       0.18239    0.18084    0.31816    1.000
    C7       C        0.04140    0.15030    0.26460    1.000
    N4       N        0.24293    0.99930    0.24730    1.000
    C8       C        0.26685    0.88630    0.20120    1.000
    Cu5      Cu       0.68239    0.31916    0.81816    1.000
    C9       C        0.54140    0.34970    0.76460    1.000
    N5       N        0.74293    0.50070    0.74730    1.000
    C10      C        0.76685    0.61370    0.70120    1.000
    Cu6      Cu       0.18239    0.81916    0.81816    1.000
    C11      C        0.04140    0.84970    0.76460    1.000
    N6       N        0.24293    0.00070    0.74730    1.000
    C12      C        0.26685    0.11370    0.70120    1.000
    Cu7      Cu       0.31761    0.31916    0.68184    1.000
    C13      C        0.45860    0.34970    0.73540    1.000
    N7       N        0.25707    0.50070    0.75270    1.000
    C14      C        0.23315    0.61370    0.79880    1.000
    Cu8      Cu       0.81761    0.81916    0.68184    1.000
    C15      C        0.95860    0.84970    0.73540    1.000
    N8       N        0.75707    0.00070    0.75270    1.000
    C16      C        0.73315    0.11370    0.79880    1.000
