# CIF file generated by openbabel 3.1.0, see https://openbabel.org
data_I
_chemical_name_common 'image0'
_cell_length_a 9.477
_cell_length_b 34.8
_cell_length_c 25.01
_cell_angle_alpha 90
_cell_angle_beta 90
_cell_angle_gamma 90
_space_group_name_H-M_alt 'P 1'
_space_group_name_Hall 'P 1'
loop_
    _symmetry_equiv_pos_as_xyz
    x,y,z
loop_
    _atom_site_label
    _atom_site_type_symbol
    _atom_site_fract_x
    _atom_site_fract_y
    _atom_site_fract_z
    _atom_site_occupancy
    N1       N        0.15540    0.92291    0.00810    1.000
    N2       N        0.33350    0.92487    0.94940    1.000
    C1       C        0.26260    0.90390    0.98630    1.000
    H1       H        0.28650    0.87880    0.99540    1.000
    N3       N        0.15710    0.95849    0.98450    1.000
    C2       C        0.26090    0.95790    0.95040    1.000
    H2       H        0.28290    0.97870    0.92860    1.000
    N4       N        0.65540    0.42291    0.50810    1.000
    N5       N        0.83350    0.42487    0.44940    1.000
    C3       C        0.76260    0.40390    0.48630    1.000
    H3       H        0.78650    0.37880    0.49540    1.000
    N6       N        0.65710    0.45849    0.48450    1.000
    C4       C        0.76090    0.45790    0.45040    1.000
    H4       H        0.78290    0.47870    0.42860    1.000
    N7       N        0.84460    0.57709    0.00810    1.000
    N8       N        0.66650    0.57513    0.94940    1.000
    C5       C        0.73740    0.59610    0.98630    1.000
    H5       H        0.71350    0.62120    0.99540    1.000
    N9       N        0.84290    0.54151    0.98450    1.000
    C6       C        0.73910    0.54210    0.95040    1.000
    H6       H        0.71710    0.52130    0.92860    1.000
    N10      N        0.34460    0.07709    0.50810    1.000
    N11      N        0.16650    0.07513    0.44940    1.000
    C7       C        0.23740    0.09610    0.48630    1.000
    H7       H        0.21350    0.12120    0.49540    1.000
    N12      N        0.34290    0.04151    0.48450    1.000
    C8       C        0.23910    0.04210    0.45040    1.000
    H8       H        0.21710    0.02130    0.42860    1.000
    N13      N        0.84460    0.42291    0.99190    1.000
    N14      N        0.66650    0.42487    0.05060    1.000
    C9       C        0.73740    0.40390    0.01370    1.000
    H9       H        0.71350    0.37880    0.00460    1.000
    N15      N        0.84290    0.45849    0.01550    1.000
    C10      C        0.73910    0.45790    0.04960    1.000
    H10      H        0.71710    0.47870    0.07140    1.000
    N16      N        0.34460    0.92291    0.49190    1.000
    N17      N        0.16650    0.92487    0.55060    1.000
    C11      C        0.23740    0.90390    0.51370    1.000
    H11      H        0.21350    0.87880    0.50460    1.000
    N18      N        0.34290    0.95849    0.51550    1.000
    C12      C        0.23910    0.95790    0.54960    1.000
    H12      H        0.21710    0.97870    0.57140    1.000
    N19      N        0.15540    0.07709    0.99190    1.000
    N20      N        0.33350    0.07513    0.05060    1.000
    C13      C        0.26260    0.09610    0.01370    1.000
    H13      H        0.28650    0.12120    0.00460    1.000
    N21      N        0.15710    0.04151    0.01550    1.000
    C14      C        0.26090    0.04210    0.04960    1.000
    H14      H        0.28290    0.02130    0.07140    1.000
    N22      N        0.65540    0.57709    0.49190    1.000
    N23      N        0.83350    0.57513    0.55060    1.000
    C15      C        0.76260    0.59610    0.51370    1.000
    H15      H        0.78650    0.62120    0.50460    1.000
    N24      N        0.65710    0.54151    0.51550    1.000
    C16      C        0.76090    0.54210    0.54960    1.000
    H16      H        0.78290    0.52130    0.57140    1.000
    N25      N        0.84460    0.07709    0.99190    1.000
    N26      N        0.66650    0.07513    0.05060    1.000
    C17      C        0.73740    0.09610    0.01370    1.000
    H17      H        0.71350    0.12120    0.00460    1.000
    N27      N        0.84290    0.04151    0.01550    1.000
    C18      C        0.73910    0.04210    0.04960    1.000
    H18      H        0.71710    0.02130    0.07140    1.000
    N28      N        0.34460    0.57709    0.49190    1.000
    N29      N        0.16650    0.57513    0.55060    1.000
    C19      C        0.23740    0.59610    0.51370    1.000
    H19      H        0.21350    0.62120    0.50460    1.000
    N30      N        0.34290    0.54151    0.51550    1.000
    C20      C        0.23910    0.54210    0.54960    1.000
    H20      H        0.21710    0.52130    0.57140    1.000
    N31      N        0.15540    0.42291    0.99190    1.000
    N32      N        0.33350    0.42487    0.05060    1.000
    C21      C        0.26260    0.40390    0.01370    1.000
    H21      H        0.28650    0.37880    0.00460    1.000
    N33      N        0.15710    0.45849    0.01550    1.000
    C22      C        0.26090    0.45790    0.04960    1.000
    H22      H        0.28290    0.47870    0.07140    1.000
    N34      N        0.65540    0.92291    0.49190    1.000
    N35      N        0.83350    0.92487    0.55060    1.000
    C23      C        0.76260    0.90390    0.51370    1.000
    H23      H        0.78650    0.87880    0.50460    1.000
    N36      N        0.65710    0.95849    0.51550    1.000
    C24      C        0.76090    0.95790    0.54960    1.000
    H24      H        0.78290    0.97870    0.57140    1.000
    N37      N        0.15540    0.57709    0.00810    1.000
    N38      N        0.33350    0.57513    0.94940    1.000
    C25      C        0.26260    0.59610    0.98630    1.000
    H25      H        0.28650    0.62120    0.99540    1.000
    N39      N        0.15710    0.54151    0.98450    1.000
    C26      C        0.26090    0.54210    0.95040    1.000
    H26      H        0.28290    0.52130    0.92860    1.000
    N40      N        0.65540    0.07709    0.50810    1.000
    N41      N        0.83350    0.07513    0.44940    1.000
    C27      C        0.76260    0.09610    0.48630    1.000
    H27      H        0.78650    0.12120    0.49540    1.000
    N42      N        0.65710    0.04151    0.48450    1.000
    C28      C        0.76090    0.04210    0.45040    1.000
    H28      H        0.78290    0.02130    0.42860    1.000
    N43      N        0.84460    0.92291    0.00810    1.000
    N44      N        0.66650    0.92487    0.94940    1.000
    C29      C        0.73740    0.90390    0.98630    1.000
    H29      H        0.71350    0.87880    0.99540    1.000
    N45      N        0.84290    0.95849    0.98450    1.000
    C30      C        0.73910    0.95790    0.95040    1.000
    H30      H        0.71710    0.97870    0.92860    1.000
    N46      N        0.34460    0.42291    0.50810    1.000
    N47      N        0.16650    0.42487    0.44940    1.000
    C31      C        0.23740    0.40390    0.48630    1.000
    H31      H        0.21350    0.37880    0.49540    1.000
    N48      N        0.34290    0.45849    0.48450    1.000
    C32      C        0.23910    0.45790    0.45040    1.000
    H32      H        0.21710    0.47870    0.42860    1.000
    Zn1      Zn       0.00000    0.90543    0.05524    1.000
    Zn2      Zn       0.00000    0.09144    0.40838    1.000
    O1       O        0.00000    0.01740    0.37210    1.000
    O2       O        0.00000    0.93020    0.12400    1.000
    O3       O        0.00000    0.98590    0.08440    1.000
    C33      C        0.00000    0.02180    0.27840    1.000
    O4       O        0.00000    0.07450    0.33350    1.000
    C34      C        0.00000    0.96620    0.12410    1.000
    O5       O        0.00000    0.14830    0.39980    1.000
    C35      C        0.00000    0.98520    0.17560    1.000
    C36      C        0.00000    0.96590    0.22240    1.000
    H33      H        0.00000    0.93920    0.22110    1.000
    C37      C        0.00000    0.03810    0.33230    1.000
    C38      C        0.00000    0.02350    0.18260    1.000
    H34      H        0.00000    0.03910    0.15240    1.000
    C39      C        0.00000    0.04090    0.23190    1.000
    H35      H        0.00000    0.06760    0.23310    1.000
    O6       O        0.00000    0.15600    0.48330    1.000
    C40      C        0.00000    0.21100    0.42390    1.000
    C41      C        0.00000    0.98330    0.27220    1.000
    H36      H        0.00000    0.96780    0.30250    1.000
    C42      C        0.00000    0.23020    0.47220    1.000
    H37      H        0.00000    0.21660    0.50420    1.000
    C43      C        0.00000    0.22960    0.37530    1.000
    H38      H        0.00000    0.21590    0.34340    1.000
    C44      C        0.00000    0.16830    0.43450    1.000
    Zn3      Zn       0.50000    0.40543    0.55524    1.000
    Zn4      Zn       0.50000    0.59144    0.90838    1.000
    O7       O        0.50000    0.51740    0.87210    1.000
    O8       O        0.50000    0.43020    0.62400    1.000
    O9       O        0.50000    0.48590    0.58440    1.000
    C45      C        0.50000    0.52180    0.77840    1.000
    O10      O        0.50000    0.57450    0.83350    1.000
    C46      C        0.50000    0.46620    0.62410    1.000
    O11      O        0.50000    0.64830    0.89980    1.000
    C47      C        0.50000    0.48520    0.67560    1.000
    C48      C        0.50000    0.46590    0.72240    1.000
    H39      H        0.50000    0.43920    0.72110    1.000
    C49      C        0.50000    0.53810    0.83230    1.000
    C50      C        0.50000    0.52350    0.68260    1.000
    H40      H        0.50000    0.53910    0.65240    1.000
    C51      C        0.50000    0.54090    0.73190    1.000
    H41      H        0.50000    0.56760    0.73310    1.000
    O12      O        0.50000    0.65600    0.98330    1.000
    C52      C        0.50000    0.71100    0.92390    1.000
    C53      C        0.50000    0.48330    0.77220    1.000
    H42      H        0.50000    0.46780    0.80250    1.000
    C54      C        0.50000    0.73020    0.97220    1.000
    H43      H        0.50000    0.71660    0.00420    1.000
    C55      C        0.50000    0.72960    0.87530    1.000
    H44      H        0.50000    0.71590    0.84340    1.000
    C56      C        0.50000    0.66830    0.93450    1.000
    Zn5      Zn       0.00000    0.59457    0.05524    1.000
    Zn6      Zn       0.00000    0.40856    0.40838    1.000
    O13      O        0.00000    0.48260    0.37210    1.000
    O14      O        0.00000    0.56980    0.12400    1.000
    O15      O        0.00000    0.51410    0.08440    1.000
    C57      C        0.00000    0.47820    0.27840    1.000
    O16      O        0.00000    0.42550    0.33350    1.000
    C58      C        0.00000    0.53380    0.12410    1.000
    O17      O        0.00000    0.35170    0.39980    1.000
    C59      C        0.00000    0.51480    0.17560    1.000
    C60      C        0.00000    0.53410    0.22240    1.000
    H45      H        0.00000    0.56080    0.22110    1.000
    C61      C        0.00000    0.46190    0.33230    1.000
    C62      C        0.00000    0.47650    0.18260    1.000
    H46      H        0.00000    0.46090    0.15240    1.000
    C63      C        0.00000    0.45910    0.23190    1.000
    H47      H        0.00000    0.43240    0.23310    1.000
    O18      O        0.00000    0.34400    0.48330    1.000
    C64      C        0.00000    0.28900    0.42390    1.000
    C65      C        0.00000    0.51670    0.27220    1.000
    H48      H        0.00000    0.53220    0.30250    1.000
    C66      C        0.00000    0.26980    0.47220    1.000
    H49      H        0.00000    0.28340    0.50420    1.000
    C67      C        0.00000    0.27040    0.37530    1.000
    H50      H        0.00000    0.28410    0.34340    1.000
    C68      C        0.00000    0.33170    0.43450    1.000
    Zn7      Zn       0.50000    0.09457    0.55524    1.000
    Zn8      Zn       0.50000    0.90856    0.90838    1.000
    O19      O        0.50000    0.98260    0.87210    1.000
    O20      O        0.50000    0.06980    0.62400    1.000
    O21      O        0.50000    0.01410    0.58440    1.000
    C69      C        0.50000    0.97820    0.77840    1.000
    O22      O        0.50000    0.92550    0.83350    1.000
    C70      C        0.50000    0.03380    0.62410    1.000
    O23      O        0.50000    0.85170    0.89980    1.000
    C71      C        0.50000    0.01480    0.67560    1.000
    C72      C        0.50000    0.03410    0.72240    1.000
    H51      H        0.50000    0.06080    0.72110    1.000
    C73      C        0.50000    0.96190    0.83230    1.000
    C74      C        0.50000    0.97650    0.68260    1.000
    H52      H        0.50000    0.96090    0.65240    1.000
    C75      C        0.50000    0.95910    0.73190    1.000
    H53      H        0.50000    0.93240    0.73310    1.000
    O24      O        0.50000    0.84400    0.98330    1.000
    C76      C        0.50000    0.78900    0.92390    1.000
    C77      C        0.50000    0.01670    0.77220    1.000
    H54      H        0.50000    0.03220    0.80250    1.000
    C78      C        0.50000    0.76980    0.97220    1.000
    H55      H        0.50000    0.78340    0.00420    1.000
    C79      C        0.50000    0.77040    0.87530    1.000
    H56      H        0.50000    0.78410    0.84340    1.000
    C80      C        0.50000    0.83170    0.93450    1.000
    Zn9      Zn       0.00000    0.40543    0.94476    1.000
    Zn10     Zn       0.00000    0.59144    0.59162    1.000
    O25      O        0.00000    0.51740    0.62790    1.000
    O26      O        0.00000    0.43020    0.87600    1.000
    O27      O        0.00000    0.48590    0.91560    1.000
    C81      C        0.00000    0.52180    0.72160    1.000
    O28      O        0.00000    0.57450    0.66650    1.000
    C82      C        0.00000    0.46620    0.87590    1.000
    O29      O        0.00000    0.64830    0.60020    1.000
    C83      C        0.00000    0.48520    0.82440    1.000
    C84      C        0.00000    0.46590    0.77760    1.000
    H57      H        0.00000    0.43920    0.77890    1.000
    C85      C        0.00000    0.53810    0.66770    1.000
    C86      C        0.00000    0.52350    0.81740    1.000
    H58      H        0.00000    0.53910    0.84760    1.000
    C87      C        0.00000    0.54090    0.76810    1.000
    H59      H        0.00000    0.56760    0.76690    1.000
    O30      O        0.00000    0.65600    0.51670    1.000
    C88      C        0.00000    0.71100    0.57610    1.000
    C89      C        0.00000    0.48330    0.72780    1.000
    H60      H        0.00000    0.46780    0.69750    1.000
    C90      C        0.00000    0.73020    0.52780    1.000
    H61      H        0.00000    0.71660    0.49580    1.000
    C91      C        0.00000    0.72960    0.62470    1.000
    H62      H        0.00000    0.71590    0.65660    1.000
    C92      C        0.00000    0.66830    0.56550    1.000
    Zn11     Zn       0.50000    0.90543    0.44476    1.000
    Zn12     Zn       0.50000    0.09144    0.09162    1.000
    O31      O        0.50000    0.01740    0.12790    1.000
    O32      O        0.50000    0.93020    0.37600    1.000
    O33      O        0.50000    0.98590    0.41560    1.000
    C93      C        0.50000    0.02180    0.22160    1.000
    O34      O        0.50000    0.07450    0.16650    1.000
    C94      C        0.50000    0.96620    0.37590    1.000
    O35      O        0.50000    0.14830    0.10020    1.000
    C95      C        0.50000    0.98520    0.32440    1.000
    C96      C        0.50000    0.96590    0.27760    1.000
    H63      H        0.50000    0.93920    0.27890    1.000
    C97      C        0.50000    0.03810    0.16770    1.000
    C98      C        0.50000    0.02350    0.31740    1.000
    H64      H        0.50000    0.03910    0.34760    1.000
    C99      C        0.50000    0.04090    0.26810    1.000
    H65      H        0.50000    0.06760    0.26690    1.000
    O36      O        0.50000    0.15600    0.01670    1.000
    C100     C        0.50000    0.21100    0.07610    1.000
    C101     C        0.50000    0.98330    0.22780    1.000
    H66      H        0.50000    0.96780    0.19750    1.000
    C102     C        0.50000    0.23020    0.02780    1.000
    H67      H        0.50000    0.21660    0.99580    1.000
    C103     C        0.50000    0.22960    0.12470    1.000
    H68      H        0.50000    0.21590    0.15660    1.000
    C104     C        0.50000    0.16830    0.06550    1.000
    Zn13     Zn       0.00000    0.09457    0.94476    1.000
    Zn14     Zn       0.00000    0.90856    0.59162    1.000
    O37      O        0.00000    0.98260    0.62790    1.000
    O38      O        0.00000    0.06980    0.87600    1.000
    O39      O        0.00000    0.01410    0.91560    1.000
    C105     C        0.00000    0.97820    0.72160    1.000
    O40      O        0.00000    0.92550    0.66650    1.000
    C106     C        0.00000    0.03380    0.87590    1.000
    O41      O        0.00000    0.85170    0.60020    1.000
    C107     C        0.00000    0.01480    0.82440    1.000
    C108     C        0.00000    0.03410    0.77760    1.000
    H69      H        0.00000    0.06080    0.77890    1.000
    C109     C        0.00000    0.96190    0.66770    1.000
    C110     C        0.00000    0.97650    0.81740    1.000
    H70      H        0.00000    0.96090    0.84760    1.000
    C111     C        0.00000    0.95910    0.76810    1.000
    H71      H        0.00000    0.93240    0.76690    1.000
    O42      O        0.00000    0.84400    0.51670    1.000
    C112     C        0.00000    0.78900    0.57610    1.000
    C113     C        0.00000    0.01670    0.72780    1.000
    H72      H        0.00000    0.03220    0.69750    1.000
    C114     C        0.00000    0.76980    0.52780    1.000
    H73      H        0.00000    0.78340    0.49580    1.000
    C115     C        0.00000    0.77040    0.62470    1.000
    H74      H        0.00000    0.78410    0.65660    1.000
    C116     C        0.00000    0.83170    0.56550    1.000
    Zn15     Zn       0.50000    0.59457    0.44476    1.000
    Zn16     Zn       0.50000    0.40856    0.09162    1.000
    O43      O        0.50000    0.48260    0.12790    1.000
    O44      O        0.50000    0.56980    0.37600    1.000
    O45      O        0.50000    0.51410    0.41560    1.000
    C117     C        0.50000    0.47820    0.22160    1.000
    O46      O        0.50000    0.42550    0.16650    1.000
    C118     C        0.50000    0.53380    0.37590    1.000
    O47      O        0.50000    0.35170    0.10020    1.000
    C119     C        0.50000    0.51480    0.32440    1.000
    C120     C        0.50000    0.53410    0.27760    1.000
    H75      H        0.50000    0.56080    0.27890    1.000
    C121     C        0.50000    0.46190    0.16770    1.000
    C122     C        0.50000    0.47650    0.31740    1.000
    H76      H        0.50000    0.46090    0.34760    1.000
    C123     C        0.50000    0.45910    0.26810    1.000
    H77      H        0.50000    0.43240    0.26690    1.000
    O48      O        0.50000    0.34400    0.01670    1.000
    C124     C        0.50000    0.28900    0.07610    1.000
    C125     C        0.50000    0.51670    0.22780    1.000
    H78      H        0.50000    0.53220    0.19750    1.000
    C126     C        0.50000    0.26980    0.02780    1.000
    H79      H        0.50000    0.28340    0.99580    1.000
    C127     C        0.50000    0.27040    0.12470    1.000
    H80      H        0.50000    0.28410    0.15660    1.000
    C128     C        0.50000    0.33170    0.06550    1.000
    Zn17     Zn       0.00000    0.00000    0.00000    1.000
    Zn18     Zn       0.50000    0.50000    0.50000    1.000
    Zn19     Zn       0.00000    0.50000    0.00000    1.000
    Zn20     Zn       0.50000    0.00000    0.50000    1.000
