# CIF file generated by openbabel 3.1.0, see https://openbabel.org
data_I
_chemical_name_common 'image0'
_cell_length_a 30.0954
_cell_length_b 15.5048
_cell_length_c 35.4843
_cell_angle_alpha 90
_cell_angle_beta 107.185
_cell_angle_gamma 90
_space_group_name_H-M_alt 'P 1'
_space_group_name_Hall 'P 1'
loop_
    _symmetry_equiv_pos_as_xyz
    x,y,z
loop_
    _atom_site_label
    _atom_site_type_symbol
    _atom_site_fract_x
    _atom_site_fract_y
    _atom_site_fract_z
    _atom_site_occupancy
    Ag1      Ag       0.76823    0.46331    0.02672    1.000
    Ag2      Ag       0.01351    0.21643    0.01019    1.000
    Ag3      Ag       0.27057    0.48875    0.27237    1.000
    O1       O        0.80030    0.64030    0.00977    1.000
    O2       O        0.77100    0.97820    0.90634    1.000
    O3       O        0.91836    0.03920    0.00496    1.000
    O4       O        0.07450    0.34710    0.01880    1.000
    O5       O        0.20960    0.73170    0.06755    1.000
    O6       O        0.23430    0.33980    0.11451    1.000
    N1       N        0.81410    0.41840    0.08135    1.000
    N2       N        0.85590    0.68400    0.06352    1.000
    H1       H        0.87800    0.72150    0.07410    1.000
    N3       N        0.70550    0.94040    0.75860    1.000
    N4       N        0.75490    0.83990    0.88770    1.000
    H2       H        0.76210    0.78570    0.89390    1.000
    N5       N        0.06210    0.16260    0.06466    1.000
    N6       N        0.94940    0.94990    0.05555    1.000
    H3       H        0.94890    0.89890    0.06630    1.000
    N7       N        0.96080    0.23580    0.95235    1.000
    N8       N        0.04850    0.46190    0.98007    1.000
    H4       H        0.05430    0.51340    0.97210    1.000
    N9       N        0.21670    0.98150    0.97108    1.000
    N10      N        0.15920    0.72680    0.00640    1.000
    H5       H        0.14100    0.69340    0.98820    1.000
    N11      N        0.33910    0.44520    0.27185    1.000
    N12      N        0.25570    0.46560    0.14610    1.000
    H6       H        0.25130    0.52170    0.14600    1.000
    C1       C        0.79870    0.35290    0.09910    1.000
    H7       H        0.77030    0.32560    0.08540    1.000
    C2       C        0.82240    0.32360    0.13630    1.000
    H8       H        0.81120    0.27560    0.14750    1.000
    C3       C        0.86240    0.36540    0.15690    1.000
    H9       H        0.87880    0.34820    0.18300    1.000
    C4       C        0.87840    0.43220    0.13930    1.000
    H10      H        0.90590    0.46190    0.15320    1.000
    C5       C        0.85410    0.45680    0.10090    1.000
    C6       C        0.87010    0.52980    0.08020    1.000
    H11      H        0.86160    0.51780    0.05150    1.000
    H12      H        0.90440    0.53520    0.09020    1.000
    C7       C        0.84760    0.61290    0.08730    1.000
    H13      H        0.81370    0.60380    0.08130    1.000
    H14      H        0.85990    0.62850    0.11560    1.000
    C8       C        0.83070    0.69310    0.02610    1.000
    C9       C        0.83980    0.77240    0.00490    1.000
    C10      C        0.87620    0.82740    0.02130    1.000
    H15      H        0.89870    0.81190    0.04530    1.000
    C11      C        0.67140    0.96560    0.72630    1.000
    H16      H        0.67630    0.01510    0.71220    1.000
    C12      C        0.63000    0.92190    0.71310    1.000
    H17      H        0.60630    0.94150    0.69060    1.000
    C13      C        0.62350    0.85040    0.73290    1.000
    H18      H        0.59510    0.81900    0.72420    1.000
    C14      C        0.65870    0.82310    0.76620    1.000
    H19      H        0.65470    0.77290    0.78020    1.000
    C15      C        0.69900    0.86980    0.77840    1.000
    C16      C        0.73650    0.84580    0.81490    1.000
    H20      H        0.76420    0.88230    0.81750    1.000
    H21      H        0.74560    0.78480    0.81330    1.000
    C17      C        0.71920    0.85820    0.85080    1.000
    H22      H        0.70840    0.91840    0.85130    1.000
    H23      H        0.69230    0.81970    0.84850    1.000
    C18      C        0.77750    0.90070    0.91260    1.000
    C19      C        0.81170    0.87070    0.95050    1.000
    C20      C        0.80790    0.79330    0.96920    1.000
    H24      H        0.78310    0.75470    0.95740    1.000
    C21      C        0.09560    0.21560    0.08660    1.000
    H25      H        0.09660    0.27370    0.07840    1.000
    C22      C        0.12780    0.18840    0.11960    1.000
    H26      H        0.15090    0.22730    0.13420    1.000
    C23      C        0.12750    0.10600    0.13220    1.000
    H27      H        0.15020    0.08640    0.15530    1.000
    C24      C        0.09360    0.05160    0.11050    1.000
    H28      H        0.09260    0.99340    0.11860    1.000
    C25      C        0.06090    0.08120    0.07690    1.000
    C26      C        0.02190    0.02400    0.05420    1.000
    H29      H        0.03460    0.96670    0.05070    1.000
    H30      H        0.00770    0.04900    0.02770    1.000
    C27      C        0.98470    0.01310    0.07480    1.000
    H31      H        0.99960    0.99490    0.10240    1.000
    H32      H        0.96950    0.06950    0.07540    1.000
    C28      C        0.91830    0.96970    0.02180    1.000
    C29      C        0.88040    0.90470    0.00350    1.000
    C30      C        0.84740    0.92660    0.96820    1.000
    H33      H        0.84940    0.98050    0.95610    1.000
    C31      C        0.92070    0.19200    0.94560    1.000
    H34      H        0.91720    0.15360    0.96540    1.000
    C32      C        0.88440    0.20000    0.91140    1.000
    H35      H        0.85710    0.16600    0.90710    1.000
    C33      C        0.88870    0.25750    0.88380    1.000
    H36      H        0.86390    0.26600    0.86030    1.000
    C34      C        0.93000    0.30420    0.89050    1.000
    H37      H        0.93370    0.34400    0.87130    1.000
    C35      C        0.96510    0.29280    0.92460    1.000
    C36      C        0.00920    0.34490    0.93460    1.000
    H38      H        0.01440    0.36740    0.91020    1.000
    H39      H        0.03600    0.30820    0.94830    1.000
    C37      C        0.00470    0.41980    0.96130    1.000
    H40      H        0.98270    0.46270    0.94540    1.000
    H41      H        0.99150    0.39780    0.98190    1.000
    C38      C        0.08030    0.42240    0.00960    1.000
    C39      C        0.12350    0.47120    0.03160    1.000
    C40      C        0.13060    0.55750    0.02500    1.000
    H42      H        0.10760    0.58860    0.00560    1.000
    C41      C        0.21090    0.06050    0.95360    1.000
    H43      H        0.23040    0.10630    0.96660    1.000
    C42      C        0.17900    0.07730    0.91890    1.000
    H44      H        0.17600    0.13360    0.90790    1.000
    C43      C        0.15050    0.01090    0.89950    1.000
    H45      H        0.12770    0.02090    0.87490    1.000
    C44      C        0.15580    0.93050    0.91630    1.000
    H46      H        0.13640    0.88430    0.90350    1.000
    C45      C        0.18940    0.91670    0.95210    1.000
    C46      C        0.19460    0.82790    0.97050    1.000
    H47      H        0.22730    0.81890    0.98640    1.000
    H48      H        0.18670    0.78370    0.94940    1.000
    C47      C        0.16300    0.81770    0.99650    1.000
    H49      H        0.17570    0.85140    0.02110    1.000
    H50      H        0.13180    0.84070    0.98260    1.000
    C48      C        0.18150    0.69150    0.04100    1.000
    C49      C        0.17130    0.59880    0.04650    1.000
    C50      C        0.20370    0.55300    0.07500    1.000
    H51      H        0.23180    0.58050    0.08950    1.000
    C51      C        0.36780    0.40790    0.30410    1.000
    H52      H        0.35700    0.39960    0.32640    1.000
    C52      C        0.41170    0.38140    0.30630    1.000
    H53      H        0.43140    0.35670    0.32980    1.000
    C53      C        0.42700    0.39160    0.27290    1.000
    H54      H        0.45690    0.37190    0.27290    1.000
    C54      C        0.39830    0.42990    0.24050    1.000
    H55      H        0.40830    0.43840    0.21780    1.000
    C55      C        0.35420    0.45700    0.24050    1.000
    C56      C        0.32120    0.49650    0.20420    1.000
    H56      H        0.33910    0.52610    0.18860    1.000
    H57      H        0.30150    0.53990    0.21210    1.000
    C57      C        0.29060    0.42670    0.17920    1.000
    H58      H        0.31010    0.38640    0.16930    1.000
    H59      H        0.27510    0.39350    0.19560    1.000
    C58      C        0.23020    0.41860    0.11570    1.000
    C59      C        0.19640    0.46770    0.08300    1.000
    C60      C        0.15630    0.42680    0.06040    1.000
    H60      H        0.15160    0.36750    0.06470    1.000
    Ag4      Ag       0.26823    0.96331    0.02672    1.000
    Ag5      Ag       0.51351    0.71643    0.01019    1.000
    Ag6      Ag       0.77057    0.98875    0.27237    1.000
    O7       O        0.30030    0.14030    0.00977    1.000
    O8       O        0.27100    0.47820    0.90634    1.000
    O9       O        0.41836    0.53920    0.00496    1.000
    O10      O        0.57450    0.84710    0.01880    1.000
    O11      O        0.70960    0.23170    0.06755    1.000
    O12      O        0.73430    0.83980    0.11451    1.000
    N13      N        0.31410    0.91840    0.08135    1.000
    N14      N        0.35590    0.18400    0.06352    1.000
    H61      H        0.37800    0.22150    0.07410    1.000
    N15      N        0.20550    0.44040    0.75860    1.000
    N16      N        0.25490    0.33990    0.88770    1.000
    H62      H        0.26210    0.28570    0.89390    1.000
    N17      N        0.56210    0.66260    0.06466    1.000
    N18      N        0.44940    0.44990    0.05555    1.000
    H63      H        0.44890    0.39890    0.06630    1.000
    N19      N        0.46080    0.73580    0.95235    1.000
    N20      N        0.54850    0.96190    0.98007    1.000
    H64      H        0.55430    0.01340    0.97210    1.000
    N21      N        0.71670    0.48150    0.97108    1.000
    N22      N        0.65920    0.22680    0.00640    1.000
    H65      H        0.64100    0.19340    0.98820    1.000
    N23      N        0.83910    0.94520    0.27185    1.000
    N24      N        0.75570    0.96560    0.14610    1.000
    H66      H        0.75130    0.02170    0.14600    1.000
    C61      C        0.29870    0.85290    0.09910    1.000
    H67      H        0.27030    0.82560    0.08540    1.000
    C62      C        0.32240    0.82360    0.13630    1.000
    H68      H        0.31120    0.77560    0.14750    1.000
    C63      C        0.36240    0.86540    0.15690    1.000
    H69      H        0.37880    0.84820    0.18300    1.000
    C64      C        0.37840    0.93220    0.13930    1.000
    H70      H        0.40590    0.96190    0.15320    1.000
    C65      C        0.35410    0.95680    0.10090    1.000
    C66      C        0.37010    0.02980    0.08020    1.000
    H71      H        0.36160    0.01780    0.05150    1.000
    H72      H        0.40440    0.03520    0.09020    1.000
    C67      C        0.34760    0.11290    0.08730    1.000
    H73      H        0.31370    0.10380    0.08130    1.000
    H74      H        0.35990    0.12850    0.11560    1.000
    C68      C        0.33070    0.19310    0.02610    1.000
    C69      C        0.33980    0.27240    0.00490    1.000
    C70      C        0.37620    0.32740    0.02130    1.000
    H75      H        0.39870    0.31190    0.04530    1.000
    C71      C        0.17140    0.46560    0.72630    1.000
    H76      H        0.17630    0.51510    0.71220    1.000
    C72      C        0.13000    0.42190    0.71310    1.000
    H77      H        0.10630    0.44150    0.69060    1.000
    C73      C        0.12350    0.35040    0.73290    1.000
    H78      H        0.09510    0.31900    0.72420    1.000
    C74      C        0.15870    0.32310    0.76620    1.000
    H79      H        0.15470    0.27290    0.78020    1.000
    C75      C        0.19900    0.36980    0.77840    1.000
    C76      C        0.23650    0.34580    0.81490    1.000
    H80      H        0.26420    0.38230    0.81750    1.000
    H81      H        0.24560    0.28480    0.81330    1.000
    C77      C        0.21920    0.35820    0.85080    1.000
    H82      H        0.20840    0.41840    0.85130    1.000
    H83      H        0.19230    0.31970    0.84850    1.000
    C78      C        0.27750    0.40070    0.91260    1.000
    C79      C        0.31170    0.37070    0.95050    1.000
    C80      C        0.30790    0.29330    0.96920    1.000
    H84      H        0.28310    0.25470    0.95740    1.000
    C81      C        0.59560    0.71560    0.08660    1.000
    H85      H        0.59660    0.77370    0.07840    1.000
    C82      C        0.62780    0.68840    0.11960    1.000
    H86      H        0.65090    0.72730    0.13420    1.000
    C83      C        0.62750    0.60600    0.13220    1.000
    H87      H        0.65020    0.58640    0.15530    1.000
    C84      C        0.59360    0.55160    0.11050    1.000
    H88      H        0.59260    0.49340    0.11860    1.000
    C85      C        0.56090    0.58120    0.07690    1.000
    C86      C        0.52190    0.52400    0.05420    1.000
    H89      H        0.53460    0.46670    0.05070    1.000
    H90      H        0.50770    0.54900    0.02770    1.000
    C87      C        0.48470    0.51310    0.07480    1.000
    H91      H        0.49960    0.49490    0.10240    1.000
    H92      H        0.46950    0.56950    0.07540    1.000
    C88      C        0.41830    0.46970    0.02180    1.000
    C89      C        0.38040    0.40470    0.00350    1.000
    C90      C        0.34740    0.42660    0.96820    1.000
    H93      H        0.34940    0.48050    0.95610    1.000
    C91      C        0.42070    0.69200    0.94560    1.000
    H94      H        0.41720    0.65360    0.96540    1.000
    C92      C        0.38440    0.70000    0.91140    1.000
    H95      H        0.35710    0.66600    0.90710    1.000
    C93      C        0.38870    0.75750    0.88380    1.000
    H96      H        0.36390    0.76600    0.86030    1.000
    C94      C        0.43000    0.80420    0.89050    1.000
    H97      H        0.43370    0.84400    0.87130    1.000
    C95      C        0.46510    0.79280    0.92460    1.000
    C96      C        0.50920    0.84490    0.93460    1.000
    H98      H        0.51440    0.86740    0.91020    1.000
    H99      H        0.53600    0.80820    0.94830    1.000
    C97      C        0.50470    0.91980    0.96130    1.000
    H100     H        0.48270    0.96270    0.94540    1.000
    H101     H        0.49150    0.89780    0.98190    1.000
    C98      C        0.58030    0.92240    0.00960    1.000
    C99      C        0.62350    0.97120    0.03160    1.000
    C100     C        0.63060    0.05750    0.02500    1.000
    H102     H        0.60760    0.08860    0.00560    1.000
    C101     C        0.71090    0.56050    0.95360    1.000
    H103     H        0.73040    0.60630    0.96660    1.000
    C102     C        0.67900    0.57730    0.91890    1.000
    H104     H        0.67600    0.63360    0.90790    1.000
    C103     C        0.65050    0.51090    0.89950    1.000
    H105     H        0.62770    0.52090    0.87490    1.000
    C104     C        0.65580    0.43050    0.91630    1.000
    H106     H        0.63640    0.38430    0.90350    1.000
    C105     C        0.68940    0.41670    0.95210    1.000
    C106     C        0.69460    0.32790    0.97050    1.000
    H107     H        0.72730    0.31890    0.98640    1.000
    H108     H        0.68670    0.28370    0.94940    1.000
    C107     C        0.66300    0.31770    0.99650    1.000
    H109     H        0.67570    0.35140    0.02110    1.000
    H110     H        0.63180    0.34070    0.98260    1.000
    C108     C        0.68150    0.19150    0.04100    1.000
    C109     C        0.67130    0.09880    0.04650    1.000
    C110     C        0.70370    0.05300    0.07500    1.000
    H111     H        0.73180    0.08050    0.08950    1.000
    C111     C        0.86780    0.90790    0.30410    1.000
    H112     H        0.85700    0.89960    0.32640    1.000
    C112     C        0.91170    0.88140    0.30630    1.000
    H113     H        0.93140    0.85670    0.32980    1.000
    C113     C        0.92700    0.89160    0.27290    1.000
    H114     H        0.95690    0.87190    0.27290    1.000
    C114     C        0.89830    0.92990    0.24050    1.000
    H115     H        0.90830    0.93840    0.21780    1.000
    C115     C        0.85420    0.95700    0.24050    1.000
    C116     C        0.82120    0.99650    0.20420    1.000
    H116     H        0.83910    0.02610    0.18860    1.000
    H117     H        0.80150    0.03990    0.21210    1.000
    C117     C        0.79060    0.92670    0.17920    1.000
    H118     H        0.81010    0.88640    0.16930    1.000
    H119     H        0.77510    0.89350    0.19560    1.000
    C118     C        0.73020    0.91860    0.11570    1.000
    C119     C        0.69640    0.96770    0.08300    1.000
    C120     C        0.65630    0.92680    0.06040    1.000
    H120     H        0.65160    0.86750    0.06470    1.000
    Ag7      Ag       0.76823    0.53669    0.52672    1.000
    Ag8      Ag       0.01351    0.78357    0.51019    1.000
    Ag9      Ag       0.27057    0.51125    0.77237    1.000
    O13      O        0.80030    0.35970    0.50977    1.000
    O14      O        0.77100    0.02180    0.40634    1.000
    O15      O        0.91836    0.96080    0.50496    1.000
    O16      O        0.07450    0.65290    0.51880    1.000
    O17      O        0.20960    0.26830    0.56755    1.000
    O18      O        0.23430    0.66020    0.61451    1.000
    N25      N        0.81410    0.58160    0.58135    1.000
    N26      N        0.85590    0.31600    0.56352    1.000
    H121     H        0.87800    0.27850    0.57410    1.000
    N27      N        0.70550    0.05960    0.25860    1.000
    N28      N        0.75490    0.16010    0.38770    1.000
    H122     H        0.76210    0.21430    0.39390    1.000
    N29      N        0.06210    0.83740    0.56466    1.000
    N30      N        0.94940    0.05010    0.55555    1.000
    H123     H        0.94890    0.10110    0.56630    1.000
    N31      N        0.96080    0.76420    0.45235    1.000
    N32      N        0.04850    0.53810    0.48007    1.000
    H124     H        0.05430    0.48660    0.47210    1.000
    N33      N        0.21670    0.01850    0.47108    1.000
    N34      N        0.15920    0.27320    0.50640    1.000
    H125     H        0.14100    0.30660    0.48820    1.000
    N35      N        0.33910    0.55480    0.77185    1.000
    N36      N        0.25570    0.53440    0.64610    1.000
    H126     H        0.25130    0.47830    0.64600    1.000
    C121     C        0.79870    0.64710    0.59910    1.000
    H127     H        0.77030    0.67440    0.58540    1.000
    C122     C        0.82240    0.67640    0.63630    1.000
    H128     H        0.81120    0.72440    0.64750    1.000
    C123     C        0.86240    0.63460    0.65690    1.000
    H129     H        0.87880    0.65180    0.68300    1.000
    C124     C        0.87840    0.56780    0.63930    1.000
    H130     H        0.90590    0.53810    0.65320    1.000
    C125     C        0.85410    0.54320    0.60090    1.000
    C126     C        0.87010    0.47020    0.58020    1.000
    H131     H        0.86160    0.48220    0.55150    1.000
    H132     H        0.90440    0.46480    0.59020    1.000
    C127     C        0.84760    0.38710    0.58730    1.000
    H133     H        0.81370    0.39620    0.58130    1.000
    H134     H        0.85990    0.37150    0.61560    1.000
    C128     C        0.83070    0.30690    0.52610    1.000
    C129     C        0.83980    0.22760    0.50490    1.000
    C130     C        0.87620    0.17260    0.52130    1.000
    H135     H        0.89870    0.18810    0.54530    1.000
    C131     C        0.67140    0.03440    0.22630    1.000
    H136     H        0.67630    0.98490    0.21220    1.000
    C132     C        0.63000    0.07810    0.21310    1.000
    H137     H        0.60630    0.05850    0.19060    1.000
    C133     C        0.62350    0.14960    0.23290    1.000
    H138     H        0.59510    0.18100    0.22420    1.000
    C134     C        0.65870    0.17690    0.26620    1.000
    H139     H        0.65470    0.22710    0.28020    1.000
    C135     C        0.69900    0.13020    0.27840    1.000
    C136     C        0.73650    0.15420    0.31490    1.000
    H140     H        0.76420    0.11770    0.31750    1.000
    H141     H        0.74560    0.21520    0.31330    1.000
    C137     C        0.71920    0.14180    0.35080    1.000
    H142     H        0.70840    0.08160    0.35130    1.000
    H143     H        0.69230    0.18030    0.34850    1.000
    C138     C        0.77750    0.09930    0.41260    1.000
    C139     C        0.81170    0.12930    0.45050    1.000
    C140     C        0.80790    0.20670    0.46920    1.000
    H144     H        0.78310    0.24530    0.45740    1.000
    C141     C        0.09560    0.78440    0.58660    1.000
    H145     H        0.09660    0.72630    0.57840    1.000
    C142     C        0.12780    0.81160    0.61960    1.000
    H146     H        0.15090    0.77270    0.63420    1.000
    C143     C        0.12750    0.89400    0.63220    1.000
    H147     H        0.15020    0.91360    0.65530    1.000
    C144     C        0.09360    0.94840    0.61050    1.000
    H148     H        0.09260    0.00660    0.61860    1.000
    C145     C        0.06090    0.91880    0.57690    1.000
    C146     C        0.02190    0.97600    0.55420    1.000
    H149     H        0.03460    0.03330    0.55070    1.000
    H150     H        0.00770    0.95100    0.52770    1.000
    C147     C        0.98470    0.98690    0.57480    1.000
    H151     H        0.99960    0.00510    0.60240    1.000
    H152     H        0.96950    0.93050    0.57540    1.000
    C148     C        0.91830    0.03030    0.52180    1.000
    C149     C        0.88040    0.09530    0.50350    1.000
    C150     C        0.84740    0.07340    0.46820    1.000
    H153     H        0.84940    0.01950    0.45610    1.000
    C151     C        0.92070    0.80800    0.44560    1.000
    H154     H        0.91720    0.84640    0.46540    1.000
    C152     C        0.88440    0.80000    0.41140    1.000
    H155     H        0.85710    0.83400    0.40710    1.000
    C153     C        0.88870    0.74250    0.38380    1.000
    H156     H        0.86390    0.73400    0.36030    1.000
    C154     C        0.93000    0.69580    0.39050    1.000
    H157     H        0.93370    0.65600    0.37130    1.000
    C155     C        0.96510    0.70720    0.42460    1.000
    C156     C        0.00920    0.65510    0.43460    1.000
    H158     H        0.01440    0.63260    0.41020    1.000
    H159     H        0.03600    0.69180    0.44830    1.000
    C157     C        0.00470    0.58020    0.46130    1.000
    H160     H        0.98270    0.53730    0.44540    1.000
    H161     H        0.99150    0.60220    0.48190    1.000
    C158     C        0.08030    0.57760    0.50960    1.000
    C159     C        0.12350    0.52880    0.53160    1.000
    C160     C        0.13060    0.44250    0.52500    1.000
    H162     H        0.10760    0.41140    0.50560    1.000
    C161     C        0.21090    0.93950    0.45360    1.000
    H163     H        0.23040    0.89370    0.46660    1.000
    C162     C        0.17900    0.92270    0.41890    1.000
    H164     H        0.17600    0.86640    0.40790    1.000
    C163     C        0.15050    0.98910    0.39950    1.000
    H165     H        0.12770    0.97910    0.37490    1.000
    C164     C        0.15580    0.06950    0.41630    1.000
    H166     H        0.13640    0.11570    0.40350    1.000
    C165     C        0.18940    0.08330    0.45210    1.000
    C166     C        0.19460    0.17210    0.47050    1.000
    H167     H        0.22730    0.18110    0.48640    1.000
    H168     H        0.18670    0.21630    0.44940    1.000
    C167     C        0.16300    0.18230    0.49650    1.000
    H169     H        0.17570    0.14860    0.52110    1.000
    H170     H        0.13180    0.15930    0.48260    1.000
    C168     C        0.18150    0.30850    0.54100    1.000
    C169     C        0.17130    0.40120    0.54650    1.000
    C170     C        0.20370    0.44700    0.57500    1.000
    H171     H        0.23180    0.41950    0.58950    1.000
    C171     C        0.36780    0.59210    0.80410    1.000
    H172     H        0.35700    0.60040    0.82640    1.000
    C172     C        0.41170    0.61860    0.80630    1.000
    H173     H        0.43140    0.64330    0.82980    1.000
    C173     C        0.42700    0.60840    0.77290    1.000
    H174     H        0.45690    0.62810    0.77290    1.000
    C174     C        0.39830    0.57010    0.74050    1.000
    H175     H        0.40830    0.56160    0.71780    1.000
    C175     C        0.35420    0.54300    0.74050    1.000
    C176     C        0.32120    0.50350    0.70420    1.000
    H176     H        0.33910    0.47390    0.68860    1.000
    H177     H        0.30150    0.46010    0.71210    1.000
    C177     C        0.29060    0.57330    0.67920    1.000
    H178     H        0.31010    0.61360    0.66930    1.000
    H179     H        0.27510    0.60650    0.69560    1.000
    C178     C        0.23020    0.58140    0.61570    1.000
    C179     C        0.19640    0.53230    0.58300    1.000
    C180     C        0.15630    0.57320    0.56040    1.000
    H180     H        0.15160    0.63250    0.56470    1.000
    Ag10     Ag       0.26823    0.03669    0.52672    1.000
    Ag11     Ag       0.51351    0.28357    0.51019    1.000
    Ag12     Ag       0.77057    0.01125    0.77237    1.000
    O19      O        0.30030    0.85970    0.50977    1.000
    O20      O        0.27100    0.52180    0.40634    1.000
    O21      O        0.41836    0.46080    0.50496    1.000
    O22      O        0.57450    0.15290    0.51880    1.000
    O23      O        0.70960    0.76830    0.56755    1.000
    O24      O        0.73430    0.16020    0.61451    1.000
    N37      N        0.31410    0.08160    0.58135    1.000
    N38      N        0.35590    0.81600    0.56352    1.000
    H181     H        0.37800    0.77850    0.57410    1.000
    N39      N        0.20550    0.55960    0.25860    1.000
    N40      N        0.25490    0.66010    0.38770    1.000
    H182     H        0.26210    0.71430    0.39390    1.000
    N41      N        0.56210    0.33740    0.56466    1.000
    N42      N        0.44940    0.55010    0.55555    1.000
    H183     H        0.44890    0.60110    0.56630    1.000
    N43      N        0.46080    0.26420    0.45235    1.000
    N44      N        0.54850    0.03810    0.48007    1.000
    H184     H        0.55430    0.98660    0.47210    1.000
    N45      N        0.71670    0.51850    0.47108    1.000
    N46      N        0.65920    0.77320    0.50640    1.000
    H185     H        0.64100    0.80660    0.48820    1.000
    N47      N        0.83910    0.05480    0.77185    1.000
    N48      N        0.75570    0.03440    0.64610    1.000
    H186     H        0.75130    0.97830    0.64600    1.000
    C181     C        0.29870    0.14710    0.59910    1.000
    H187     H        0.27030    0.17440    0.58540    1.000
    C182     C        0.32240    0.17640    0.63630    1.000
    H188     H        0.31120    0.22440    0.64750    1.000
    C183     C        0.36240    0.13460    0.65690    1.000
    H189     H        0.37880    0.15180    0.68300    1.000
    C184     C        0.37840    0.06780    0.63930    1.000
    H190     H        0.40590    0.03810    0.65320    1.000
    C185     C        0.35410    0.04320    0.60090    1.000
    C186     C        0.37010    0.97020    0.58020    1.000
    H191     H        0.36160    0.98220    0.55150    1.000
    H192     H        0.40440    0.96480    0.59020    1.000
    C187     C        0.34760    0.88710    0.58730    1.000
    H193     H        0.31370    0.89620    0.58130    1.000
    H194     H        0.35990    0.87150    0.61560    1.000
    C188     C        0.33070    0.80690    0.52610    1.000
    C189     C        0.33980    0.72760    0.50490    1.000
    C190     C        0.37620    0.67260    0.52130    1.000
    H195     H        0.39870    0.68810    0.54530    1.000
    C191     C        0.17140    0.53440    0.22630    1.000
    H196     H        0.17630    0.48490    0.21220    1.000
    C192     C        0.13000    0.57810    0.21310    1.000
    H197     H        0.10630    0.55850    0.19060    1.000
    C193     C        0.12350    0.64960    0.23290    1.000
    H198     H        0.09510    0.68100    0.22420    1.000
    C194     C        0.15870    0.67690    0.26620    1.000
    H199     H        0.15470    0.72710    0.28020    1.000
    C195     C        0.19900    0.63020    0.27840    1.000
    C196     C        0.23650    0.65420    0.31490    1.000
    H200     H        0.26420    0.61770    0.31750    1.000
    H201     H        0.24560    0.71520    0.31330    1.000
    C197     C        0.21920    0.64180    0.35080    1.000
    H202     H        0.20840    0.58160    0.35130    1.000
    H203     H        0.19230    0.68030    0.34850    1.000
    C198     C        0.27750    0.59930    0.41260    1.000
    C199     C        0.31170    0.62930    0.45050    1.000
    C200     C        0.30790    0.70670    0.46920    1.000
    H204     H        0.28310    0.74530    0.45740    1.000
    C201     C        0.59560    0.28440    0.58660    1.000
    H205     H        0.59660    0.22630    0.57840    1.000
    C202     C        0.62780    0.31160    0.61960    1.000
    H206     H        0.65090    0.27270    0.63420    1.000
    C203     C        0.62750    0.39400    0.63220    1.000
    H207     H        0.65020    0.41360    0.65530    1.000
    C204     C        0.59360    0.44840    0.61050    1.000
    H208     H        0.59260    0.50660    0.61860    1.000
    C205     C        0.56090    0.41880    0.57690    1.000
    C206     C        0.52190    0.47600    0.55420    1.000
    H209     H        0.53460    0.53330    0.55070    1.000
    H210     H        0.50770    0.45100    0.52770    1.000
    C207     C        0.48470    0.48690    0.57480    1.000
    H211     H        0.49960    0.50510    0.60240    1.000
    H212     H        0.46950    0.43050    0.57540    1.000
    C208     C        0.41830    0.53030    0.52180    1.000
    C209     C        0.38040    0.59530    0.50350    1.000
    C210     C        0.34740    0.57340    0.46820    1.000
    H213     H        0.34940    0.51950    0.45610    1.000
    C211     C        0.42070    0.30800    0.44560    1.000
    H214     H        0.41720    0.34640    0.46540    1.000
    C212     C        0.38440    0.30000    0.41140    1.000
    H215     H        0.35710    0.33400    0.40710    1.000
    C213     C        0.38870    0.24250    0.38380    1.000
    H216     H        0.36390    0.23400    0.36030    1.000
    C214     C        0.43000    0.19580    0.39050    1.000
    H217     H        0.43370    0.15600    0.37130    1.000
    C215     C        0.46510    0.20720    0.42460    1.000
    C216     C        0.50920    0.15510    0.43460    1.000
    H218     H        0.51440    0.13260    0.41020    1.000
    H219     H        0.53600    0.19180    0.44830    1.000
    C217     C        0.50470    0.08020    0.46130    1.000
    H220     H        0.48270    0.03730    0.44540    1.000
    H221     H        0.49150    0.10220    0.48190    1.000
    C218     C        0.58030    0.07760    0.50960    1.000
    C219     C        0.62350    0.02880    0.53160    1.000
    C220     C        0.63060    0.94250    0.52500    1.000
    H222     H        0.60760    0.91140    0.50560    1.000
    C221     C        0.71090    0.43950    0.45360    1.000
    H223     H        0.73040    0.39370    0.46660    1.000
    C222     C        0.67900    0.42270    0.41890    1.000
    H224     H        0.67600    0.36640    0.40790    1.000
    C223     C        0.65050    0.48910    0.39950    1.000
    H225     H        0.62770    0.47910    0.37490    1.000
    C224     C        0.65580    0.56950    0.41630    1.000
    H226     H        0.63640    0.61570    0.40350    1.000
    C225     C        0.68940    0.58330    0.45210    1.000
    C226     C        0.69460    0.67210    0.47050    1.000
    H227     H        0.72730    0.68110    0.48640    1.000
    H228     H        0.68670    0.71630    0.44940    1.000
    C227     C        0.66300    0.68230    0.49650    1.000
    H229     H        0.67570    0.64860    0.52110    1.000
    H230     H        0.63180    0.65930    0.48260    1.000
    C228     C        0.68150    0.80850    0.54100    1.000
    C229     C        0.67130    0.90120    0.54650    1.000
    C230     C        0.70370    0.94700    0.57500    1.000
    H231     H        0.73180    0.91950    0.58950    1.000
    C231     C        0.86780    0.09210    0.80410    1.000
    H232     H        0.85700    0.10040    0.82640    1.000
    C232     C        0.91170    0.11860    0.80630    1.000
    H233     H        0.93140    0.14330    0.82980    1.000
    C233     C        0.92700    0.10840    0.77290    1.000
    H234     H        0.95690    0.12810    0.77290    1.000
    C234     C        0.89830    0.07010    0.74050    1.000
    H235     H        0.90830    0.06160    0.71780    1.000
    C235     C        0.85420    0.04300    0.74050    1.000
    C236     C        0.82120    0.00350    0.70420    1.000
    H236     H        0.83910    0.97390    0.68860    1.000
    H237     H        0.80150    0.96010    0.71210    1.000
    C237     C        0.79060    0.07330    0.67920    1.000
    H238     H        0.81010    0.11360    0.66930    1.000
    H239     H        0.77510    0.10650    0.69560    1.000
    C238     C        0.73020    0.08140    0.61570    1.000
    C239     C        0.69640    0.03230    0.58300    1.000
    C240     C        0.65630    0.07320    0.56040    1.000
    H240     H        0.65160    0.13250    0.56470    1.000
    Ag13     Ag       0.23177    0.46331    0.47328    1.000
    Ag14     Ag       0.98649    0.21643    0.48981    1.000
    Ag15     Ag       0.72943    0.48875    0.22763    1.000
    O25      O        0.19970    0.64030    0.49023    1.000
    O26      O        0.22900    0.97820    0.59366    1.000
    O27      O        0.08164    0.03920    0.49504    1.000
    O28      O        0.92550    0.34710    0.48120    1.000
    O29      O        0.79040    0.73170    0.43245    1.000
    O30      O        0.76570    0.33980    0.38549    1.000
    N49      N        0.18590    0.41840    0.41865    1.000
    N50      N        0.14410    0.68400    0.43648    1.000
    H241     H        0.12200    0.72150    0.42590    1.000
    N51      N        0.29450    0.94040    0.74140    1.000
    N52      N        0.24510    0.83990    0.61230    1.000
    H242     H        0.23790    0.78570    0.60610    1.000
    N53      N        0.93790    0.16260    0.43534    1.000
    N54      N        0.05060    0.94990    0.44445    1.000
    H243     H        0.05110    0.89890    0.43370    1.000
    N55      N        0.03920    0.23580    0.54765    1.000
    N56      N        0.95150    0.46190    0.51993    1.000
    H244     H        0.94570    0.51340    0.52790    1.000
    N57      N        0.78330    0.98150    0.52892    1.000
    N58      N        0.84080    0.72680    0.49360    1.000
    H245     H        0.85900    0.69340    0.51180    1.000
    N59      N        0.66090    0.44520    0.22815    1.000
    N60      N        0.74430    0.46560    0.35390    1.000
    H246     H        0.74870    0.52170    0.35400    1.000
    C241     C        0.20130    0.35290    0.40090    1.000
    H247     H        0.22970    0.32560    0.41460    1.000
    C242     C        0.17760    0.32360    0.36370    1.000
    H248     H        0.18880    0.27560    0.35250    1.000
    C243     C        0.13760    0.36540    0.34310    1.000
    H249     H        0.12120    0.34820    0.31700    1.000
    C244     C        0.12160    0.43220    0.36070    1.000
    H250     H        0.09410    0.46190    0.34680    1.000
    C245     C        0.14590    0.45680    0.39910    1.000
    C246     C        0.12990    0.52980    0.41980    1.000
    H251     H        0.13840    0.51780    0.44850    1.000
    H252     H        0.09560    0.53520    0.40980    1.000
    C247     C        0.15240    0.61290    0.41270    1.000
    H253     H        0.18630    0.60380    0.41870    1.000
    H254     H        0.14010    0.62850    0.38440    1.000
    C248     C        0.16930    0.69310    0.47390    1.000
    C249     C        0.16020    0.77240    0.49510    1.000
    C250     C        0.12380    0.82740    0.47870    1.000
    H255     H        0.10130    0.81190    0.45470    1.000
    C251     C        0.32860    0.96560    0.77370    1.000
    H256     H        0.32370    0.01510    0.78780    1.000
    C252     C        0.37000    0.92190    0.78690    1.000
    H257     H        0.39370    0.94150    0.80940    1.000
    C253     C        0.37650    0.85040    0.76710    1.000
    H258     H        0.40490    0.81900    0.77580    1.000
    C254     C        0.34130    0.82310    0.73380    1.000
    H259     H        0.34530    0.77290    0.71980    1.000
    C255     C        0.30100    0.86980    0.72160    1.000
    C256     C        0.26350    0.84580    0.68510    1.000
    H260     H        0.23580    0.88230    0.68250    1.000
    H261     H        0.25440    0.78480    0.68670    1.000
    C257     C        0.28080    0.85820    0.64920    1.000
    H262     H        0.29160    0.91840    0.64870    1.000
    H263     H        0.30770    0.81970    0.65150    1.000
    C258     C        0.22250    0.90070    0.58740    1.000
    C259     C        0.18830    0.87070    0.54950    1.000
    C260     C        0.19210    0.79330    0.53080    1.000
    H264     H        0.21690    0.75470    0.54260    1.000
    C261     C        0.90440    0.21560    0.41340    1.000
    H265     H        0.90340    0.27370    0.42160    1.000
    C262     C        0.87220    0.18840    0.38040    1.000
    H266     H        0.84910    0.22730    0.36580    1.000
    C263     C        0.87250    0.10600    0.36780    1.000
    H267     H        0.84980    0.08640    0.34470    1.000
    C264     C        0.90640    0.05160    0.38950    1.000
    H268     H        0.90740    0.99340    0.38140    1.000
    C265     C        0.93910    0.08120    0.42310    1.000
    C266     C        0.97810    0.02400    0.44580    1.000
    H269     H        0.96540    0.96670    0.44930    1.000
    H270     H        0.99230    0.04900    0.47230    1.000
    C267     C        0.01530    0.01310    0.42520    1.000
    H271     H        0.00040    0.99490    0.39760    1.000
    H272     H        0.03050    0.06950    0.42460    1.000
    C268     C        0.08170    0.96970    0.47820    1.000
    C269     C        0.11960    0.90470    0.49650    1.000
    C270     C        0.15260    0.92660    0.53180    1.000
    H273     H        0.15060    0.98050    0.54390    1.000
    C271     C        0.07930    0.19200    0.55440    1.000
    H274     H        0.08280    0.15360    0.53460    1.000
    C272     C        0.11560    0.20000    0.58860    1.000
    H275     H        0.14290    0.16600    0.59290    1.000
    C273     C        0.11130    0.25750    0.61620    1.000
    H276     H        0.13610    0.26600    0.63970    1.000
    C274     C        0.07000    0.30420    0.60950    1.000
    H277     H        0.06630    0.34400    0.62870    1.000
    C275     C        0.03490    0.29280    0.57540    1.000
    C276     C        0.99080    0.34490    0.56540    1.000
    H278     H        0.98560    0.36740    0.58980    1.000
    H279     H        0.96400    0.30820    0.55170    1.000
    C277     C        0.99530    0.41980    0.53870    1.000
    H280     H        0.01730    0.46270    0.55460    1.000
    H281     H        0.00850    0.39780    0.51810    1.000
    C278     C        0.91970    0.42240    0.49040    1.000
    C279     C        0.87650    0.47120    0.46840    1.000
    C280     C        0.86940    0.55750    0.47500    1.000
    H282     H        0.89240    0.58860    0.49440    1.000
    C281     C        0.78910    0.06050    0.54640    1.000
    H283     H        0.76960    0.10630    0.53340    1.000
    C282     C        0.82100    0.07730    0.58110    1.000
    H284     H        0.82400    0.13360    0.59210    1.000
    C283     C        0.84950    0.01090    0.60050    1.000
    H285     H        0.87230    0.02090    0.62510    1.000
    C284     C        0.84420    0.93050    0.58370    1.000
    H286     H        0.86360    0.88430    0.59650    1.000
    C285     C        0.81060    0.91670    0.54790    1.000
    C286     C        0.80540    0.82790    0.52950    1.000
    H287     H        0.77270    0.81890    0.51360    1.000
    H288     H        0.81330    0.78370    0.55060    1.000
    C287     C        0.83700    0.81770    0.50350    1.000
    H289     H        0.82430    0.85140    0.47890    1.000
    H290     H        0.86820    0.84070    0.51740    1.000
    C288     C        0.81850    0.69150    0.45900    1.000
    C289     C        0.82870    0.59880    0.45350    1.000
    C290     C        0.79630    0.55300    0.42500    1.000
    H291     H        0.76820    0.58050    0.41050    1.000
    C291     C        0.63220    0.40790    0.19590    1.000
    H292     H        0.64300    0.39960    0.17360    1.000
    C292     C        0.58830    0.38140    0.19370    1.000
    H293     H        0.56860    0.35670    0.17020    1.000
    C293     C        0.57300    0.39160    0.22710    1.000
    H294     H        0.54310    0.37190    0.22710    1.000
    C294     C        0.60170    0.42990    0.25950    1.000
    H295     H        0.59170    0.43840    0.28220    1.000
    C295     C        0.64580    0.45700    0.25950    1.000
    C296     C        0.67880    0.49650    0.29580    1.000
    H296     H        0.66090    0.52610    0.31140    1.000
    H297     H        0.69850    0.53990    0.28790    1.000
    C297     C        0.70940    0.42670    0.32080    1.000
    H298     H        0.68990    0.38640    0.33070    1.000
    H299     H        0.72490    0.39350    0.30440    1.000
    C298     C        0.76980    0.41860    0.38430    1.000
    C299     C        0.80360    0.46770    0.41700    1.000
    C300     C        0.84370    0.42680    0.43960    1.000
    H300     H        0.84840    0.36750    0.43530    1.000
    Ag16     Ag       0.73177    0.96331    0.47328    1.000
    Ag17     Ag       0.48649    0.71643    0.48981    1.000
    Ag18     Ag       0.22943    0.98875    0.22763    1.000
    O31      O        0.69970    0.14030    0.49023    1.000
    O32      O        0.72900    0.47820    0.59366    1.000
    O33      O        0.58164    0.53920    0.49504    1.000
    O34      O        0.42550    0.84710    0.48120    1.000
    O35      O        0.29040    0.23170    0.43245    1.000
    O36      O        0.26570    0.83980    0.38549    1.000
    N61      N        0.68590    0.91840    0.41865    1.000
    N62      N        0.64410    0.18400    0.43648    1.000
    H301     H        0.62200    0.22150    0.42590    1.000
    N63      N        0.79450    0.44040    0.74140    1.000
    N64      N        0.74510    0.33990    0.61230    1.000
    H302     H        0.73790    0.28570    0.60610    1.000
    N65      N        0.43790    0.66260    0.43534    1.000
    N66      N        0.55060    0.44990    0.44445    1.000
    H303     H        0.55110    0.39890    0.43370    1.000
    N67      N        0.53920    0.73580    0.54765    1.000
    N68      N        0.45150    0.96190    0.51993    1.000
    H304     H        0.44570    0.01340    0.52790    1.000
    N69      N        0.28330    0.48150    0.52892    1.000
    N70      N        0.34080    0.22680    0.49360    1.000
    H305     H        0.35900    0.19340    0.51180    1.000
    N71      N        0.16090    0.94520    0.22815    1.000
    N72      N        0.24430    0.96560    0.35390    1.000
    H306     H        0.24870    0.02170    0.35400    1.000
    C301     C        0.70130    0.85290    0.40090    1.000
    H307     H        0.72970    0.82560    0.41460    1.000
    C302     C        0.67760    0.82360    0.36370    1.000
    H308     H        0.68880    0.77560    0.35250    1.000
    C303     C        0.63760    0.86540    0.34310    1.000
    H309     H        0.62120    0.84820    0.31700    1.000
    C304     C        0.62160    0.93220    0.36070    1.000
    H310     H        0.59410    0.96190    0.34680    1.000
    C305     C        0.64590    0.95680    0.39910    1.000
    C306     C        0.62990    0.02980    0.41980    1.000
    H311     H        0.63840    0.01780    0.44850    1.000
    H312     H        0.59560    0.03520    0.40980    1.000
    C307     C        0.65240    0.11290    0.41270    1.000
    H313     H        0.68630    0.10380    0.41870    1.000
    H314     H        0.64010    0.12850    0.38440    1.000
    C308     C        0.66930    0.19310    0.47390    1.000
    C309     C        0.66020    0.27240    0.49510    1.000
    C310     C        0.62380    0.32740    0.47870    1.000
    H315     H        0.60130    0.31190    0.45470    1.000
    C311     C        0.82860    0.46560    0.77370    1.000
    H316     H        0.82370    0.51510    0.78780    1.000
    C312     C        0.87000    0.42190    0.78690    1.000
    H317     H        0.89370    0.44150    0.80940    1.000
    C313     C        0.87650    0.35040    0.76710    1.000
    H318     H        0.90490    0.31900    0.77580    1.000
    C314     C        0.84130    0.32310    0.73380    1.000
    H319     H        0.84530    0.27290    0.71980    1.000
    C315     C        0.80100    0.36980    0.72160    1.000
    C316     C        0.76350    0.34580    0.68510    1.000
    H320     H        0.73580    0.38230    0.68250    1.000
    H321     H        0.75440    0.28480    0.68670    1.000
    C317     C        0.78080    0.35820    0.64920    1.000
    H322     H        0.79160    0.41840    0.64870    1.000
    H323     H        0.80770    0.31970    0.65150    1.000
    C318     C        0.72250    0.40070    0.58740    1.000
    C319     C        0.68830    0.37070    0.54950    1.000
    C320     C        0.69210    0.29330    0.53080    1.000
    H324     H        0.71690    0.25470    0.54260    1.000
    C321     C        0.40440    0.71560    0.41340    1.000
    H325     H        0.40340    0.77370    0.42160    1.000
    C322     C        0.37220    0.68840    0.38040    1.000
    H326     H        0.34910    0.72730    0.36580    1.000
    C323     C        0.37250    0.60600    0.36780    1.000
    H327     H        0.34980    0.58640    0.34470    1.000
    C324     C        0.40640    0.55160    0.38950    1.000
    H328     H        0.40740    0.49340    0.38140    1.000
    C325     C        0.43910    0.58120    0.42310    1.000
    C326     C        0.47810    0.52400    0.44580    1.000
    H329     H        0.46540    0.46670    0.44930    1.000
    H330     H        0.49230    0.54900    0.47230    1.000
    C327     C        0.51530    0.51310    0.42520    1.000
    H331     H        0.50040    0.49490    0.39760    1.000
    H332     H        0.53050    0.56950    0.42460    1.000
    C328     C        0.58170    0.46970    0.47820    1.000
    C329     C        0.61960    0.40470    0.49650    1.000
    C330     C        0.65260    0.42660    0.53180    1.000
    H333     H        0.65060    0.48050    0.54390    1.000
    C331     C        0.57930    0.69200    0.55440    1.000
    H334     H        0.58280    0.65360    0.53460    1.000
    C332     C        0.61560    0.70000    0.58860    1.000
    H335     H        0.64290    0.66600    0.59290    1.000
    C333     C        0.61130    0.75750    0.61620    1.000
    H336     H        0.63610    0.76600    0.63970    1.000
    C334     C        0.57000    0.80420    0.60950    1.000
    H337     H        0.56630    0.84400    0.62870    1.000
    C335     C        0.53490    0.79280    0.57540    1.000
    C336     C        0.49080    0.84490    0.56540    1.000
    H338     H        0.48560    0.86740    0.58980    1.000
    H339     H        0.46400    0.80820    0.55170    1.000
    C337     C        0.49530    0.91980    0.53870    1.000
    H340     H        0.51730    0.96270    0.55460    1.000
    H341     H        0.50850    0.89780    0.51810    1.000
    C338     C        0.41970    0.92240    0.49040    1.000
    C339     C        0.37650    0.97120    0.46840    1.000
    C340     C        0.36940    0.05750    0.47500    1.000
    H342     H        0.39240    0.08860    0.49440    1.000
    C341     C        0.28910    0.56050    0.54640    1.000
    H343     H        0.26960    0.60630    0.53340    1.000
    C342     C        0.32100    0.57730    0.58110    1.000
    H344     H        0.32400    0.63360    0.59210    1.000
    C343     C        0.34950    0.51090    0.60050    1.000
    H345     H        0.37230    0.52090    0.62510    1.000
    C344     C        0.34420    0.43050    0.58370    1.000
    H346     H        0.36360    0.38430    0.59650    1.000
    C345     C        0.31060    0.41670    0.54790    1.000
    C346     C        0.30540    0.32790    0.52950    1.000
    H347     H        0.27270    0.31890    0.51360    1.000
    H348     H        0.31330    0.28370    0.55060    1.000
    C347     C        0.33700    0.31770    0.50350    1.000
    H349     H        0.32430    0.35140    0.47890    1.000
    H350     H        0.36820    0.34070    0.51740    1.000
    C348     C        0.31850    0.19150    0.45900    1.000
    C349     C        0.32870    0.09880    0.45350    1.000
    C350     C        0.29630    0.05300    0.42500    1.000
    H351     H        0.26820    0.08050    0.41050    1.000
    C351     C        0.13220    0.90790    0.19590    1.000
    H352     H        0.14300    0.89960    0.17360    1.000
    C352     C        0.08830    0.88140    0.19370    1.000
    H353     H        0.06860    0.85670    0.17020    1.000
    C353     C        0.07300    0.89160    0.22710    1.000
    H354     H        0.04310    0.87190    0.22710    1.000
    C354     C        0.10170    0.92990    0.25950    1.000
    H355     H        0.09170    0.93840    0.28220    1.000
    C355     C        0.14580    0.95700    0.25950    1.000
    C356     C        0.17880    0.99650    0.29580    1.000
    H356     H        0.16090    0.02610    0.31140    1.000
    H357     H        0.19850    0.03990    0.28790    1.000
    C357     C        0.20940    0.92670    0.32080    1.000
    H358     H        0.18990    0.88640    0.33070    1.000
    H359     H        0.22490    0.89350    0.30440    1.000
    C358     C        0.26980    0.91860    0.38430    1.000
    C359     C        0.30360    0.96770    0.41700    1.000
    C360     C        0.34370    0.92680    0.43960    1.000
    H360     H        0.34840    0.86750    0.43530    1.000
    Ag19     Ag       0.23177    0.53669    0.97328    1.000
    Ag20     Ag       0.98649    0.78357    0.98981    1.000
    Ag21     Ag       0.72943    0.51125    0.72763    1.000
    O37      O        0.19970    0.35970    0.99023    1.000
    O38      O        0.22900    0.02180    0.09366    1.000
    O39      O        0.08164    0.96080    0.99504    1.000
    O40      O        0.92550    0.65290    0.98120    1.000
    O41      O        0.79040    0.26830    0.93245    1.000
    O42      O        0.76570    0.66020    0.88549    1.000
    N73      N        0.18590    0.58160    0.91865    1.000
    N74      N        0.14410    0.31600    0.93648    1.000
    H361     H        0.12200    0.27850    0.92590    1.000
    N75      N        0.29450    0.05960    0.24140    1.000
    N76      N        0.24510    0.16010    0.11230    1.000
    H362     H        0.23790    0.21430    0.10610    1.000
    N77      N        0.93790    0.83740    0.93534    1.000
    N78      N        0.05060    0.05010    0.94445    1.000
    H363     H        0.05110    0.10110    0.93370    1.000
    N79      N        0.03920    0.76420    0.04765    1.000
    N80      N        0.95150    0.53810    0.01993    1.000
    H364     H        0.94570    0.48660    0.02790    1.000
    N81      N        0.78330    0.01850    0.02892    1.000
    N82      N        0.84080    0.27320    0.99360    1.000
    H365     H        0.85900    0.30660    0.01180    1.000
    N83      N        0.66090    0.55480    0.72815    1.000
    N84      N        0.74430    0.53440    0.85390    1.000
    H366     H        0.74870    0.47830    0.85400    1.000
    C361     C        0.20130    0.64710    0.90090    1.000
    H367     H        0.22970    0.67440    0.91460    1.000
    C362     C        0.17760    0.67640    0.86370    1.000
    H368     H        0.18880    0.72440    0.85250    1.000
    C363     C        0.13760    0.63460    0.84310    1.000
    H369     H        0.12120    0.65180    0.81700    1.000
    C364     C        0.12160    0.56780    0.86070    1.000
    H370     H        0.09410    0.53810    0.84680    1.000
    C365     C        0.14590    0.54320    0.89910    1.000
    C366     C        0.12990    0.47020    0.91980    1.000
    H371     H        0.13840    0.48220    0.94850    1.000
    H372     H        0.09560    0.46480    0.90980    1.000
    C367     C        0.15240    0.38710    0.91270    1.000
    H373     H        0.18630    0.39620    0.91870    1.000
    H374     H        0.14010    0.37150    0.88440    1.000
    C368     C        0.16930    0.30690    0.97390    1.000
    C369     C        0.16020    0.22760    0.99510    1.000
    C370     C        0.12380    0.17260    0.97870    1.000
    H375     H        0.10130    0.18810    0.95470    1.000
    C371     C        0.32860    0.03440    0.27370    1.000
    H376     H        0.32370    0.98490    0.28780    1.000
    C372     C        0.37000    0.07810    0.28690    1.000
    H377     H        0.39370    0.05850    0.30940    1.000
    C373     C        0.37650    0.14960    0.26710    1.000
    H378     H        0.40490    0.18100    0.27580    1.000
    C374     C        0.34130    0.17690    0.23380    1.000
    H379     H        0.34530    0.22710    0.21980    1.000
    C375     C        0.30100    0.13020    0.22160    1.000
    C376     C        0.26350    0.15420    0.18510    1.000
    H380     H        0.23580    0.11770    0.18250    1.000
    H381     H        0.25440    0.21520    0.18670    1.000
    C377     C        0.28080    0.14180    0.14920    1.000
    H382     H        0.29160    0.08160    0.14870    1.000
    H383     H        0.30770    0.18030    0.15150    1.000
    C378     C        0.22250    0.09930    0.08740    1.000
    C379     C        0.18830    0.12930    0.04950    1.000
    C380     C        0.19210    0.20670    0.03080    1.000
    H384     H        0.21690    0.24530    0.04260    1.000
    C381     C        0.90440    0.78440    0.91340    1.000
    H385     H        0.90340    0.72630    0.92160    1.000
    C382     C        0.87220    0.81160    0.88040    1.000
    H386     H        0.84910    0.77270    0.86580    1.000
    C383     C        0.87250    0.89400    0.86780    1.000
    H387     H        0.84980    0.91360    0.84470    1.000
    C384     C        0.90640    0.94840    0.88950    1.000
    H388     H        0.90740    0.00660    0.88140    1.000
    C385     C        0.93910    0.91880    0.92310    1.000
    C386     C        0.97810    0.97600    0.94580    1.000
    H389     H        0.96540    0.03330    0.94930    1.000
    H390     H        0.99230    0.95100    0.97230    1.000
    C387     C        0.01530    0.98690    0.92520    1.000
    H391     H        0.00040    0.00510    0.89760    1.000
    H392     H        0.03050    0.93050    0.92460    1.000
    C388     C        0.08170    0.03030    0.97820    1.000
    C389     C        0.11960    0.09530    0.99650    1.000
    C390     C        0.15260    0.07340    0.03180    1.000
    H393     H        0.15060    0.01950    0.04390    1.000
    C391     C        0.07930    0.80800    0.05440    1.000
    H394     H        0.08280    0.84640    0.03460    1.000
    C392     C        0.11560    0.80000    0.08860    1.000
    H395     H        0.14290    0.83400    0.09290    1.000
    C393     C        0.11130    0.74250    0.11620    1.000
    H396     H        0.13610    0.73400    0.13970    1.000
    C394     C        0.07000    0.69580    0.10950    1.000
    H397     H        0.06630    0.65600    0.12870    1.000
    C395     C        0.03490    0.70720    0.07540    1.000
    C396     C        0.99080    0.65510    0.06540    1.000
    H398     H        0.98560    0.63260    0.08980    1.000
    H399     H        0.96400    0.69180    0.05170    1.000
    C397     C        0.99530    0.58020    0.03870    1.000
    H400     H        0.01730    0.53730    0.05460    1.000
    H401     H        0.00850    0.60220    0.01810    1.000
    C398     C        0.91970    0.57760    0.99040    1.000
    C399     C        0.87650    0.52880    0.96840    1.000
    C400     C        0.86940    0.44250    0.97500    1.000
    H402     H        0.89240    0.41140    0.99440    1.000
    C401     C        0.78910    0.93950    0.04640    1.000
    H403     H        0.76960    0.89370    0.03340    1.000
    C402     C        0.82100    0.92270    0.08110    1.000
    H404     H        0.82400    0.86640    0.09210    1.000
    C403     C        0.84950    0.98910    0.10050    1.000
    H405     H        0.87230    0.97910    0.12510    1.000
    C404     C        0.84420    0.06950    0.08370    1.000
    H406     H        0.86360    0.11570    0.09650    1.000
    C405     C        0.81060    0.08330    0.04790    1.000
    C406     C        0.80540    0.17210    0.02950    1.000
    H407     H        0.77270    0.18110    0.01360    1.000
    H408     H        0.81330    0.21630    0.05060    1.000
    C407     C        0.83700    0.18230    0.00350    1.000
    H409     H        0.82430    0.14860    0.97890    1.000
    H410     H        0.86820    0.15930    0.01740    1.000
    C408     C        0.81850    0.30850    0.95900    1.000
    C409     C        0.82870    0.40120    0.95350    1.000
    C410     C        0.79630    0.44700    0.92500    1.000
    H411     H        0.76820    0.41950    0.91050    1.000
    C411     C        0.63220    0.59210    0.69590    1.000
    H412     H        0.64300    0.60040    0.67360    1.000
    C412     C        0.58830    0.61860    0.69370    1.000
    H413     H        0.56860    0.64330    0.67020    1.000
    C413     C        0.57300    0.60840    0.72710    1.000
    H414     H        0.54310    0.62810    0.72710    1.000
    C414     C        0.60170    0.57010    0.75950    1.000
    H415     H        0.59170    0.56160    0.78220    1.000
    C415     C        0.64580    0.54300    0.75950    1.000
    C416     C        0.67880    0.50350    0.79580    1.000
    H416     H        0.66090    0.47390    0.81140    1.000
    H417     H        0.69850    0.46010    0.78790    1.000
    C417     C        0.70940    0.57330    0.82080    1.000
    H418     H        0.68990    0.61360    0.83070    1.000
    H419     H        0.72490    0.60650    0.80440    1.000
    C418     C        0.76980    0.58140    0.88430    1.000
    C419     C        0.80360    0.53230    0.91700    1.000
    C420     C        0.84370    0.57320    0.93960    1.000
    H420     H        0.84840    0.63250    0.93530    1.000
    Ag22     Ag       0.73177    0.03669    0.97328    1.000
    Ag23     Ag       0.48649    0.28357    0.98981    1.000
    Ag24     Ag       0.22943    0.01125    0.72763    1.000
    O43      O        0.69970    0.85970    0.99023    1.000
    O44      O        0.72900    0.52180    0.09366    1.000
    O45      O        0.58164    0.46080    0.99504    1.000
    O46      O        0.42550    0.15290    0.98120    1.000
    O47      O        0.29040    0.76830    0.93245    1.000
    O48      O        0.26570    0.16020    0.88549    1.000
    N85      N        0.68590    0.08160    0.91865    1.000
    N86      N        0.64410    0.81600    0.93648    1.000
    H421     H        0.62200    0.77850    0.92590    1.000
    N87      N        0.79450    0.55960    0.24140    1.000
    N88      N        0.74510    0.66010    0.11230    1.000
    H422     H        0.73790    0.71430    0.10610    1.000
    N89      N        0.43790    0.33740    0.93534    1.000
    N90      N        0.55060    0.55010    0.94445    1.000
    H423     H        0.55110    0.60110    0.93370    1.000
    N91      N        0.53920    0.26420    0.04765    1.000
    N92      N        0.45150    0.03810    0.01993    1.000
    H424     H        0.44570    0.98660    0.02790    1.000
    N93      N        0.28330    0.51850    0.02892    1.000
    N94      N        0.34080    0.77320    0.99360    1.000
    H425     H        0.35900    0.80660    0.01180    1.000
    N95      N        0.16090    0.05480    0.72815    1.000
    N96      N        0.24430    0.03440    0.85390    1.000
    H426     H        0.24870    0.97830    0.85400    1.000
    C421     C        0.70130    0.14710    0.90090    1.000
    H427     H        0.72970    0.17440    0.91460    1.000
    C422     C        0.67760    0.17640    0.86370    1.000
    H428     H        0.68880    0.22440    0.85250    1.000
    C423     C        0.63760    0.13460    0.84310    1.000
    H429     H        0.62120    0.15180    0.81700    1.000
    C424     C        0.62160    0.06780    0.86070    1.000
    H430     H        0.59410    0.03810    0.84680    1.000
    C425     C        0.64590    0.04320    0.89910    1.000
    C426     C        0.62990    0.97020    0.91980    1.000
    H431     H        0.63840    0.98220    0.94850    1.000
    H432     H        0.59560    0.96480    0.90980    1.000
    C427     C        0.65240    0.88710    0.91270    1.000
    H433     H        0.68630    0.89620    0.91870    1.000
    H434     H        0.64010    0.87150    0.88440    1.000
    C428     C        0.66930    0.80690    0.97390    1.000
    C429     C        0.66020    0.72760    0.99510    1.000
    C430     C        0.62380    0.67260    0.97870    1.000
    H435     H        0.60130    0.68810    0.95470    1.000
    C431     C        0.82860    0.53440    0.27370    1.000
    H436     H        0.82370    0.48490    0.28780    1.000
    C432     C        0.87000    0.57810    0.28690    1.000
    H437     H        0.89370    0.55850    0.30940    1.000
    C433     C        0.87650    0.64960    0.26710    1.000
    H438     H        0.90490    0.68100    0.27580    1.000
    C434     C        0.84130    0.67690    0.23380    1.000
    H439     H        0.84530    0.72710    0.21980    1.000
    C435     C        0.80100    0.63020    0.22160    1.000
    C436     C        0.76350    0.65420    0.18510    1.000
    H440     H        0.73580    0.61770    0.18250    1.000
    H441     H        0.75440    0.71520    0.18670    1.000
    C437     C        0.78080    0.64180    0.14920    1.000
    H442     H        0.79160    0.58160    0.14870    1.000
    H443     H        0.80770    0.68030    0.15150    1.000
    C438     C        0.72250    0.59930    0.08740    1.000
    C439     C        0.68830    0.62930    0.04950    1.000
    C440     C        0.69210    0.70670    0.03080    1.000
    H444     H        0.71690    0.74530    0.04260    1.000
    C441     C        0.40440    0.28440    0.91340    1.000
    H445     H        0.40340    0.22630    0.92160    1.000
    C442     C        0.37220    0.31160    0.88040    1.000
    H446     H        0.34910    0.27270    0.86580    1.000
    C443     C        0.37250    0.39400    0.86780    1.000
    H447     H        0.34980    0.41360    0.84470    1.000
    C444     C        0.40640    0.44840    0.88950    1.000
    H448     H        0.40740    0.50660    0.88140    1.000
    C445     C        0.43910    0.41880    0.92310    1.000
    C446     C        0.47810    0.47600    0.94580    1.000
    H449     H        0.46540    0.53330    0.94930    1.000
    H450     H        0.49230    0.45100    0.97230    1.000
    C447     C        0.51530    0.48690    0.92520    1.000
    H451     H        0.50040    0.50510    0.89760    1.000
    H452     H        0.53050    0.43050    0.92460    1.000
    C448     C        0.58170    0.53030    0.97820    1.000
    C449     C        0.61960    0.59530    0.99650    1.000
    C450     C        0.65260    0.57340    0.03180    1.000
    H453     H        0.65060    0.51950    0.04390    1.000
    C451     C        0.57930    0.30800    0.05440    1.000
    H454     H        0.58280    0.34640    0.03460    1.000
    C452     C        0.61560    0.30000    0.08860    1.000
    H455     H        0.64290    0.33400    0.09290    1.000
    C453     C        0.61130    0.24250    0.11620    1.000
    H456     H        0.63610    0.23400    0.13970    1.000
    C454     C        0.57000    0.19580    0.10950    1.000
    H457     H        0.56630    0.15600    0.12870    1.000
    C455     C        0.53490    0.20720    0.07540    1.000
    C456     C        0.49080    0.15510    0.06540    1.000
    H458     H        0.48560    0.13260    0.08980    1.000
    H459     H        0.46400    0.19180    0.05170    1.000
    C457     C        0.49530    0.08020    0.03870    1.000
    H460     H        0.51730    0.03730    0.05460    1.000
    H461     H        0.50850    0.10220    0.01810    1.000
    C458     C        0.41970    0.07760    0.99040    1.000
    C459     C        0.37650    0.02880    0.96840    1.000
    C460     C        0.36940    0.94250    0.97500    1.000
    H462     H        0.39240    0.91140    0.99440    1.000
    C461     C        0.28910    0.43950    0.04640    1.000
    H463     H        0.26960    0.39370    0.03340    1.000
    C462     C        0.32100    0.42270    0.08110    1.000
    H464     H        0.32400    0.36640    0.09210    1.000
    C463     C        0.34950    0.48910    0.10050    1.000
    H465     H        0.37230    0.47910    0.12510    1.000
    C464     C        0.34420    0.56950    0.08370    1.000
    H466     H        0.36360    0.61570    0.09650    1.000
    C465     C        0.31060    0.58330    0.04790    1.000
    C466     C        0.30540    0.67210    0.02950    1.000
    H467     H        0.27270    0.68110    0.01360    1.000
    H468     H        0.31330    0.71630    0.05060    1.000
    C467     C        0.33700    0.68230    0.00350    1.000
    H469     H        0.32430    0.64860    0.97890    1.000
    H470     H        0.36820    0.65930    0.01740    1.000
    C468     C        0.31850    0.80850    0.95900    1.000
    C469     C        0.32870    0.90120    0.95350    1.000
    C470     C        0.29630    0.94700    0.92500    1.000
    H471     H        0.26820    0.91950    0.91050    1.000
    C471     C        0.13220    0.09210    0.69590    1.000
    H472     H        0.14300    0.10040    0.67360    1.000
    C472     C        0.08830    0.11860    0.69370    1.000
    H473     H        0.06860    0.14330    0.67020    1.000
    C473     C        0.07300    0.10840    0.72710    1.000
    H474     H        0.04310    0.12810    0.72710    1.000
    C474     C        0.10170    0.07010    0.75950    1.000
    H475     H        0.09170    0.06160    0.78220    1.000
    C475     C        0.14580    0.04300    0.75950    1.000
    C476     C        0.17880    0.00350    0.79580    1.000
    H476     H        0.16090    0.97390    0.81140    1.000
    H477     H        0.19850    0.96010    0.78790    1.000
    C477     C        0.20940    0.07330    0.82080    1.000
    H478     H        0.18990    0.11360    0.83070    1.000
    H479     H        0.22490    0.10650    0.80440    1.000
    C478     C        0.26980    0.08140    0.88430    1.000
    C479     C        0.30360    0.03230    0.91700    1.000
    C480     C        0.34370    0.07320    0.93960    1.000
    H480     H        0.34840    0.13250    0.93530    1.000
