# CIF file generated by openbabel 3.1.0, see https://openbabel.org
data_I
_chemical_name_common 'image0'
_cell_length_a 45.646
_cell_length_b 45.646
_cell_length_c 10.915
_cell_angle_alpha 90
_cell_angle_beta 90
_cell_angle_gamma 120
_space_group_name_H-M_alt 'P 1'
_space_group_name_Hall 'P 1'
loop_
    _symmetry_equiv_pos_as_xyz
    x,y,z
loop_
    _atom_site_label
    _atom_site_type_symbol
    _atom_site_fract_x
    _atom_site_fract_y
    _atom_site_fract_z
    _atom_site_occupancy
    Cu1      Cu       0.15462    0.30927    0.41905    1.000
    O1       O        0.11423    0.28898    0.31600    1.000
    C1       C        0.11196    0.30266    0.21900    1.000
    C2       C        0.07860    0.28483    0.15310    1.000
    C3       C        0.98339    0.23549    0.96840    1.000
    C4       C        0.04364    0.28160    0.98670    1.000
    C5       C        0.01668    0.25182    0.03150    1.000
    C6       C        0.07458    0.29801    0.04550    1.000
    H1       H        0.09240    0.31770    0.01270    1.000
    C7       C        0.05271    0.25486    0.19940    1.000
    H2       H        0.05590    0.24520    0.26950    1.000
    C8       C        0.02178    0.23945    0.13890    1.000
    O2       O        0.06725    0.30686    0.80930    1.000
    O3       O        0.01519    0.29171    0.83520    1.000
    N1       N        0.04221    0.29511    0.87300    1.000
    O4       O        0.13487    0.32952    0.17080    1.000
    C9       C        0.92541    0.22344    0.95510    1.000
    H3       H        0.90760    0.22510    0.98840    1.000
    C10      C        0.92157    0.20638    0.84570    1.000
    C11      C        0.95635    0.23782    0.01300    1.000
    C12      C        0.94739    0.20242    0.80090    1.000
    H4       H        0.94420    0.18950    0.73100    1.000
    C13      C        0.97822    0.21780    0.86050    1.000
    C14      C        0.88809    0.19075    0.78080    1.000
    O5       O        0.88581    0.17484    0.68340    1.000
    O6       O        0.86518    0.19479    0.82900    1.000
    N2       N        0.00118    0.20772    0.81870    1.000
    O7       O        0.02770    0.21595    0.87270    1.000
    O8       O        0.99650    0.19470    0.71750    1.000
    N3       N        0.95792    0.25301    0.12690    1.000
    O9       O        0.93259    0.23937    0.19160    1.000
    N4       N        0.99888    0.20665    0.18290    1.000
    O10      O        0.98484    0.27658    0.16490    1.000
    O11      O        0.97241    0.18817    0.12640    1.000
    O12      O        0.00345    0.19770    0.28100    1.000
    Cu2      Cu       0.82129    0.64260    0.75238    1.000
    O13      O        0.78090    0.62231    0.64933    1.000
    C15      C        0.77863    0.63599    0.55233    1.000
    C16      C        0.74527    0.61816    0.48643    1.000
    C17      C        0.65006    0.56882    0.30173    1.000
    C18      C        0.71031    0.61493    0.32003    1.000
    C19      C        0.68335    0.58515    0.36483    1.000
    C20      C        0.74125    0.63134    0.37883    1.000
    H5       H        0.75907    0.65103    0.34603    1.000
    C21      C        0.71938    0.58819    0.53273    1.000
    H6       H        0.72257    0.57853    0.60283    1.000
    C22      C        0.68845    0.57278    0.47223    1.000
    O14      O        0.73392    0.64019    0.14263    1.000
    O15      O        0.68186    0.62504    0.16853    1.000
    N5       N        0.70888    0.62844    0.20633    1.000
    O16      O        0.80154    0.66285    0.50413    1.000
    C23      C        0.59208    0.55677    0.28843    1.000
    H7       H        0.57427    0.55843    0.32173    1.000
    C24      C        0.58824    0.53971    0.17903    1.000
    C25      C        0.62302    0.57115    0.34633    1.000
    C26      C        0.61406    0.53575    0.13423    1.000
    H8       H        0.61087    0.52283    0.06433    1.000
    C27      C        0.64489    0.55113    0.19383    1.000
    C28      C        0.55476    0.52408    0.11413    1.000
    O17      O        0.55248    0.50817    0.01673    1.000
    O18      O        0.53185    0.52812    0.16233    1.000
    N6       N        0.66785    0.54105    0.15203    1.000
    O19      O        0.69437    0.54928    0.20603    1.000
    O20      O        0.66317    0.52803    0.05083    1.000
    N7       N        0.62459    0.58634    0.46023    1.000
    O21      O        0.59926    0.57270    0.52493    1.000
    N8       N        0.66555    0.53998    0.51623    1.000
    O22      O        0.65151    0.60991    0.49823    1.000
    O23      O        0.63908    0.52150    0.45973    1.000
    O24      O        0.67012    0.53103    0.61433    1.000
    Cu3      Cu       0.48796    0.97593    0.08572    1.000
    O25      O        0.44756    0.95565    0.98267    1.000
    C29      C        0.44529    0.96933    0.88567    1.000
    C30      C        0.41193    0.95150    0.81977    1.000
    C31      C        0.31672    0.90216    0.63507    1.000
    C32      C        0.37697    0.94827    0.65337    1.000
    C33      C        0.35001    0.91849    0.69817    1.000
    C34      C        0.40791    0.96468    0.71217    1.000
    H9       H        0.42573    0.98437    0.67937    1.000
    C35      C        0.38604    0.92153    0.86607    1.000
    H10      H        0.38923    0.91187    0.93617    1.000
    C36      C        0.35511    0.90612    0.80557    1.000
    O26      O        0.40058    0.97353    0.47597    1.000
    O27      O        0.34852    0.95838    0.50187    1.000
    N9       N        0.37554    0.96178    0.53967    1.000
    O28      O        0.46820    0.99619    0.83747    1.000
    C37      C        0.25874    0.89011    0.62177    1.000
    H11      H        0.24093    0.89177    0.65507    1.000
    C38      C        0.25490    0.87305    0.51237    1.000
    C39      C        0.28968    0.90449    0.67967    1.000
    C40      C        0.28072    0.86909    0.46757    1.000
    H12      H        0.27753    0.85617    0.39767    1.000
    C41      C        0.31155    0.88447    0.52717    1.000
    C42      C        0.22142    0.85742    0.44747    1.000
    O29      O        0.21914    0.84151    0.35007    1.000
    O30      O        0.19851    0.86146    0.49567    1.000
    N10      N        0.33451    0.87439    0.48537    1.000
    O31      O        0.36103    0.88262    0.53937    1.000
    O32      O        0.32983    0.86137    0.38417    1.000
    N11      N        0.29125    0.91968    0.79357    1.000
    O33      O        0.26592    0.90604    0.85827    1.000
    N12      N        0.33221    0.87332    0.84957    1.000
    O34      O        0.31817    0.94325    0.83157    1.000
    O35      O        0.30574    0.85484    0.79307    1.000
    O36      O        0.33678    0.86437    0.94767    1.000
    Cu4      Cu       0.69073    0.84536    0.41905    1.000
    O37      O        0.71102    0.82525    0.31600    1.000
    C43      C        0.69734    0.80930    0.21900    1.000
    C44      C        0.71517    0.79377    0.15310    1.000
    C45      C        0.76451    0.74790    0.96840    1.000
    C46      C        0.71840    0.76204    0.98670    1.000
    C47      C        0.74818    0.76486    0.03150    1.000
    C48      C        0.70199    0.77657    0.04550    1.000
    H13      H        0.68230    0.77470    0.01270    1.000
    C49      C        0.74514    0.79785    0.19940    1.000
    H14      H        0.75480    0.81070    0.26950    1.000
    C50      C        0.76055    0.78233    0.13890    1.000
    O38      O        0.69314    0.76039    0.80930    1.000
    O39      O        0.70829    0.72348    0.83520    1.000
    N13      N        0.70489    0.74710    0.87300    1.000
    O40      O        0.67048    0.80535    0.17080    1.000
    C51      C        0.77656    0.70197    0.95510    1.000
    H15      H        0.77490    0.68250    0.98840    1.000
    C52      C        0.79362    0.71519    0.84570    1.000
    C53      C        0.76218    0.71853    0.01300    1.000
    C54      C        0.79758    0.74497    0.80090    1.000
    H16      H        0.81050    0.75470    0.73100    1.000
    C55      C        0.78220    0.76042    0.86050    1.000
    C56      C        0.80925    0.69734    0.78080    1.000
    O41      O        0.82516    0.71097    0.68340    1.000
    O42      O        0.80521    0.67039    0.82900    1.000
    N14      N        0.79228    0.79346    0.81870    1.000
    O43      O        0.78405    0.81175    0.87270    1.000
    O44      O        0.80530    0.80180    0.71750    1.000
    N15      N        0.74699    0.70491    0.12690    1.000
    O45      O        0.76063    0.69322    0.19160    1.000
    N16      N        0.79335    0.79223    0.18290    1.000
    O46      O        0.72342    0.70826    0.16490    1.000
    O47      O        0.81183    0.78424    0.12640    1.000
    O48      O        0.80230    0.80575    0.28100    1.000
    Cu5      Cu       0.35740    0.17869    0.75238    1.000
    O49      O        0.37769    0.15858    0.64933    1.000
    C57      C        0.36401    0.14263    0.55233    1.000
    C58      C        0.38184    0.12710    0.48643    1.000
    C59      C        0.43118    0.08123    0.30173    1.000
    C60      C        0.38507    0.09537    0.32003    1.000
    C61      C        0.41485    0.09819    0.36483    1.000
    C62      C        0.36866    0.10990    0.37883    1.000
    H17      H        0.34897    0.10803    0.34603    1.000
    C63      C        0.41181    0.13118    0.53273    1.000
    H18      H        0.42147    0.14403    0.60283    1.000
    C64      C        0.42722    0.11566    0.47223    1.000
    O50      O        0.35981    0.09372    0.14263    1.000
    O51      O        0.37496    0.05681    0.16853    1.000
    N17      N        0.37156    0.08043    0.20633    1.000
    O52      O        0.33715    0.13868    0.50413    1.000
    C65      C        0.44323    0.03530    0.28843    1.000
    H19      H        0.44157    0.01583    0.32173    1.000
    C66      C        0.46029    0.04852    0.17903    1.000
    C67      C        0.42885    0.05186    0.34633    1.000
    C68      C        0.46425    0.07830    0.13423    1.000
    H20      H        0.47717    0.08803    0.06433    1.000
    C69      C        0.44887    0.09375    0.19383    1.000
    C70      C        0.47592    0.03067    0.11413    1.000
    O53      O        0.49183    0.04430    0.01673    1.000
    O54      O        0.47188    0.00372    0.16233    1.000
    N18      N        0.45895    0.12679    0.15203    1.000
    O55      O        0.45072    0.14508    0.20603    1.000
    O56      O        0.47197    0.13513    0.05083    1.000
    N19      N        0.41366    0.03824    0.46023    1.000
    O57      O        0.42730    0.02655    0.52493    1.000
    N20      N        0.46002    0.12556    0.51623    1.000
    O58      O        0.39009    0.04159    0.49823    1.000
    O59      O        0.47850    0.11757    0.45973    1.000
    O60      O        0.46897    0.13908    0.61433    1.000
    Cu6      Cu       0.02407    0.51202    0.08572    1.000
    O61      O        0.04435    0.49192    0.98267    1.000
    C71      C        0.03067    0.47597    0.88567    1.000
    C72      C        0.04850    0.46044    0.81977    1.000
    C73      C        0.09784    0.41457    0.63507    1.000
    C74      C        0.05173    0.42871    0.65337    1.000
    C75      C        0.08151    0.43153    0.69817    1.000
    C76      C        0.03532    0.44324    0.71217    1.000
    H21      H        0.01563    0.44137    0.67937    1.000
    C77      C        0.07847    0.46452    0.86607    1.000
    H22      H        0.08813    0.47737    0.93617    1.000
    C78      C        0.09388    0.44900    0.80557    1.000
    O62      O        0.02647    0.42706    0.47597    1.000
    O63      O        0.04162    0.39015    0.50187    1.000
    N21      N        0.03822    0.41377    0.53967    1.000
    O64      O        0.00381    0.47202    0.83747    1.000
    C79      C        0.10989    0.36864    0.62177    1.000
    H23      H        0.10823    0.34917    0.65507    1.000
    C80      C        0.12695    0.38186    0.51237    1.000
    C81      C        0.09551    0.38520    0.67967    1.000
    C82      C        0.13091    0.41164    0.46757    1.000
    H24      H        0.14383    0.42137    0.39767    1.000
    C83      C        0.11553    0.42709    0.52717    1.000
    C84      C        0.14258    0.36401    0.44747    1.000
    O65      O        0.15849    0.37764    0.35007    1.000
    O66      O        0.13854    0.33706    0.49567    1.000
    N22      N        0.12561    0.46013    0.48537    1.000
    O67      O        0.11738    0.47842    0.53937    1.000
    O68      O        0.13863    0.46847    0.38417    1.000
    N23      N        0.08032    0.37158    0.79357    1.000
    O69      O        0.09396    0.35989    0.85827    1.000
    N24      N        0.12668    0.45890    0.84957    1.000
    O70      O        0.05675    0.37493    0.83157    1.000
    O71      O        0.14516    0.45091    0.79307    1.000
    O72      O        0.13563    0.47242    0.94767    1.000
    Cu7      Cu       0.15464    0.84538    0.41905    1.000
    O73      O        0.17475    0.88577    0.31600    1.000
    C85      C        0.19070    0.88804    0.21900    1.000
    C86      C        0.20623    0.92140    0.15310    1.000
    C87      C        0.25210    0.01661    0.96840    1.000
    C88      C        0.23796    0.95636    0.98670    1.000
    C89      C        0.23514    0.98332    0.03150    1.000
    C90      C        0.22343    0.92542    0.04550    1.000
    H25      H        0.22530    0.90760    0.01270    1.000
    C91      C        0.20215    0.94729    0.19940    1.000
    H26      H        0.18930    0.94410    0.26950    1.000
    C92      C        0.21767    0.97822    0.13890    1.000
    O74      O        0.23961    0.93275    0.80930    1.000
    O75      O        0.27652    0.98481    0.83520    1.000
    N25      N        0.25290    0.95779    0.87300    1.000
    O76      O        0.19465    0.86513    0.17080    1.000
    C93      C        0.29803    0.07459    0.95510    1.000
    H27      H        0.31750    0.09240    0.98840    1.000
    C94      C        0.28481    0.07843    0.84570    1.000
    C95      C        0.28147    0.04365    0.01300    1.000
    C96      C        0.25503    0.05261    0.80090    1.000
    H28      H        0.24530    0.05580    0.73100    1.000
    C97      C        0.23958    0.02178    0.86050    1.000
    C98      C        0.30266    0.11191    0.78080    1.000
    O77      O        0.28903    0.11419    0.68340    1.000
    O78      O        0.32961    0.13482    0.82900    1.000
    N26      N        0.20654    0.99882    0.81870    1.000
    O79      O        0.18825    0.97230    0.87270    1.000
    O80      O        0.19820    0.00350    0.71750    1.000
    N27      N        0.29509    0.04208    0.12690    1.000
    O81      O        0.30678    0.06741    0.19160    1.000
    N28      N        0.20777    0.00112    0.18290    1.000
    O82      O        0.29174    0.01516    0.16490    1.000
    O83      O        0.21576    0.02759    0.12640    1.000
    O84      O        0.19425    0.99655    0.28100    1.000
    Cu8      Cu       0.82131    0.17871    0.75238    1.000
    O85      O        0.84142    0.21910    0.64933    1.000
    C99      C        0.85737    0.22137    0.55233    1.000
    C100     C        0.87290    0.25473    0.48643    1.000
    C101     C        0.91877    0.34994    0.30173    1.000
    C102     C        0.90463    0.28969    0.32003    1.000
    C103     C        0.90181    0.31665    0.36483    1.000
    C104     C        0.89010    0.25875    0.37883    1.000
    H29      H        0.89197    0.24093    0.34603    1.000
    C105     C        0.86882    0.28062    0.53273    1.000
    H30      H        0.85597    0.27743    0.60283    1.000
    C106     C        0.88434    0.31155    0.47223    1.000
    O86      O        0.90628    0.26608    0.14263    1.000
    O87      O        0.94319    0.31814    0.16853    1.000
    N29      N        0.91957    0.29112    0.20633    1.000
    O88      O        0.86132    0.19846    0.50413    1.000
    C107     C        0.96470    0.40792    0.28843    1.000
    H31      H        0.98417    0.42573    0.32173    1.000
    C108     C        0.95148    0.41176    0.17903    1.000
    C109     C        0.94814    0.37698    0.34633    1.000
    C110     C        0.92170    0.38594    0.13423    1.000
    H32      H        0.91197    0.38913    0.06433    1.000
    C111     C        0.90625    0.35511    0.19383    1.000
    C112     C        0.96933    0.44524    0.11413    1.000
    O89      O        0.95570    0.44752    0.01673    1.000
    O90      O        0.99628    0.46815    0.16233    1.000
    N30      N        0.87321    0.33215    0.15203    1.000
    O91      O        0.85492    0.30563    0.20603    1.000
    O92      O        0.86487    0.33683    0.05083    1.000
    N31      N        0.96176    0.37541    0.46023    1.000
    O93      O        0.97345    0.40074    0.52493    1.000
    N32      N        0.87444    0.33445    0.51623    1.000
    O94      O        0.95841    0.34849    0.49823    1.000
    O95      O        0.88243    0.36092    0.45973    1.000
    O96      O        0.86092    0.32988    0.61433    1.000
    Cu9      Cu       0.48798    0.51204    0.08572    1.000
    O97      O        0.50808    0.55244    0.98267    1.000
    C113     C        0.52403    0.55471    0.88567    1.000
    C114     C        0.53956    0.58807    0.81977    1.000
    C115     C        0.58543    0.68328    0.63507    1.000
    C116     C        0.57129    0.62303    0.65337    1.000
    C117     C        0.56847    0.64999    0.69817    1.000
    C118     C        0.55676    0.59209    0.71217    1.000
    H33      H        0.55863    0.57427    0.67937    1.000
    C119     C        0.53548    0.61396    0.86607    1.000
    H34      H        0.52263    0.61077    0.93617    1.000
    C120     C        0.55100    0.64489    0.80557    1.000
    O98      O        0.57294    0.59942    0.47597    1.000
    O99      O        0.60985    0.65148    0.50187    1.000
    N33      N        0.58623    0.62446    0.53967    1.000
    O100     O        0.52798    0.53180    0.83747    1.000
    C121     C        0.63136    0.74126    0.62177    1.000
    H35      H        0.65083    0.75907    0.65507    1.000
    C122     C        0.61814    0.74510    0.51237    1.000
    C123     C        0.61480    0.71032    0.67967    1.000
    C124     C        0.58836    0.71928    0.46757    1.000
    H36      H        0.57863    0.72247    0.39767    1.000
    C125     C        0.57291    0.68845    0.52717    1.000
    C126     C        0.63599    0.77858    0.44747    1.000
    O101     O        0.62236    0.78086    0.35007    1.000
    O102     O        0.66294    0.80149    0.49567    1.000
    N34      N        0.53987    0.66549    0.48537    1.000
    O103     O        0.52158    0.63897    0.53937    1.000
    O104     O        0.53153    0.67017    0.38417    1.000
    N35      N        0.62842    0.70875    0.79357    1.000
    O105     O        0.64011    0.73408    0.85827    1.000
    N36      N        0.54110    0.66779    0.84957    1.000
    O106     O        0.62507    0.68183    0.83157    1.000
    O107     O        0.54909    0.69426    0.79307    1.000
    O108     O        0.52758    0.66322    0.94767    1.000
    Cu10     Cu       0.84538    0.69073    0.58095    1.000
    O109     O        0.88577    0.71102    0.68400    1.000
    C127     C        0.88804    0.69734    0.78100    1.000
    C128     C        0.92140    0.71517    0.84690    1.000
    C129     C        0.01661    0.76451    0.03160    1.000
    C130     C        0.95636    0.71840    0.01330    1.000
    C131     C        0.98332    0.74818    0.96850    1.000
    C132     C        0.92542    0.70199    0.95450    1.000
    H37      H        0.90760    0.68230    0.98730    1.000
    C133     C        0.94729    0.74514    0.80060    1.000
    H38      H        0.94410    0.75480    0.73050    1.000
    C134     C        0.97822    0.76055    0.86110    1.000
    O110     O        0.93275    0.69314    0.19070    1.000
    O111     O        0.98481    0.70829    0.16480    1.000
    N37      N        0.95779    0.70489    0.12700    1.000
    O112     O        0.86513    0.67048    0.82920    1.000
    C135     C        0.07459    0.77656    0.04490    1.000
    H39      H        0.09240    0.77490    0.01160    1.000
    C136     C        0.07843    0.79362    0.15430    1.000
    C137     C        0.04365    0.76218    0.98700    1.000
    C138     C        0.05261    0.79758    0.19910    1.000
    H40      H        0.05580    0.81050    0.26900    1.000
    C139     C        0.02178    0.78220    0.13950    1.000
    C140     C        0.11191    0.80925    0.21920    1.000
    O113     O        0.11419    0.82516    0.31660    1.000
    O114     O        0.13482    0.80521    0.17100    1.000
    N38      N        0.99882    0.79228    0.18130    1.000
    O115     O        0.97230    0.78405    0.12730    1.000
    O116     O        0.00350    0.80530    0.28250    1.000
    N39      N        0.04208    0.74699    0.87310    1.000
    O117     O        0.06741    0.76063    0.80840    1.000
    N40      N        0.00112    0.79335    0.81710    1.000
    O118     O        0.01516    0.72342    0.83510    1.000
    O119     O        0.02759    0.81183    0.87360    1.000
    O120     O        0.99655    0.80230    0.71900    1.000
    Cu11     Cu       0.51204    0.02407    0.91428    1.000
    O121     O        0.55244    0.04435    0.01733    1.000
    C141     C        0.55471    0.03067    0.11433    1.000
    C142     C        0.58807    0.04850    0.18023    1.000
    C143     C        0.68328    0.09784    0.36493    1.000
    C144     C        0.62303    0.05173    0.34663    1.000
    C145     C        0.64999    0.08151    0.30183    1.000
    C146     C        0.59209    0.03532    0.28783    1.000
    H41      H        0.57427    0.01563    0.32063    1.000
    C147     C        0.61396    0.07847    0.13393    1.000
    H42      H        0.61077    0.08813    0.06383    1.000
    C148     C        0.64489    0.09388    0.19443    1.000
    O122     O        0.59942    0.02647    0.52403    1.000
    O123     O        0.65148    0.04162    0.49813    1.000
    N41      N        0.62446    0.03822    0.46033    1.000
    O124     O        0.53180    0.00381    0.16253    1.000
    C149     C        0.74126    0.10989    0.37823    1.000
    H43      H        0.75907    0.10823    0.34493    1.000
    C150     C        0.74510    0.12695    0.48763    1.000
    C151     C        0.71032    0.09551    0.32033    1.000
    C152     C        0.71928    0.13091    0.53243    1.000
    H44      H        0.72247    0.14383    0.60233    1.000
    C153     C        0.68845    0.11553    0.47283    1.000
    C154     C        0.77858    0.14258    0.55253    1.000
    O125     O        0.78086    0.15849    0.64993    1.000
    O126     O        0.80149    0.13854    0.50433    1.000
    N42      N        0.66549    0.12561    0.51463    1.000
    O127     O        0.63897    0.11738    0.46063    1.000
    O128     O        0.67017    0.13863    0.61583    1.000
    N43      N        0.70875    0.08032    0.20643    1.000
    O129     O        0.73408    0.09396    0.14173    1.000
    N44      N        0.66779    0.12668    0.15043    1.000
    O130     O        0.68183    0.05675    0.16843    1.000
    O131     O        0.69426    0.14516    0.20693    1.000
    O132     O        0.66322    0.13563    0.05233    1.000
    Cu12     Cu       0.17871    0.35740    0.24762    1.000
    O133     O        0.21910    0.37769    0.35067    1.000
    C155     C        0.22137    0.36401    0.44767    1.000
    C156     C        0.25473    0.38184    0.51357    1.000
    C157     C        0.34994    0.43118    0.69827    1.000
    C158     C        0.28969    0.38507    0.67997    1.000
    C159     C        0.31665    0.41485    0.63517    1.000
    C160     C        0.25875    0.36866    0.62117    1.000
    H45      H        0.24093    0.34897    0.65397    1.000
    C161     C        0.28062    0.41181    0.46727    1.000
    H46      H        0.27743    0.42147    0.39717    1.000
    C162     C        0.31155    0.42722    0.52777    1.000
    O134     O        0.26608    0.35981    0.85737    1.000
    O135     O        0.31814    0.37496    0.83147    1.000
    N45      N        0.29112    0.37156    0.79367    1.000
    O136     O        0.19846    0.33715    0.49587    1.000
    C163     C        0.40792    0.44323    0.71157    1.000
    H47      H        0.42573    0.44157    0.67827    1.000
    C164     C        0.41176    0.46029    0.82097    1.000
    C165     C        0.37698    0.42885    0.65367    1.000
    C166     C        0.38594    0.46425    0.86577    1.000
    H48      H        0.38913    0.47717    0.93567    1.000
    C167     C        0.35511    0.44887    0.80617    1.000
    C168     C        0.44524    0.47592    0.88587    1.000
    O137     O        0.44752    0.49183    0.98327    1.000
    O138     O        0.46815    0.47188    0.83767    1.000
    N46      N        0.33215    0.45895    0.84797    1.000
    O139     O        0.30563    0.45072    0.79397    1.000
    O140     O        0.33683    0.47197    0.94917    1.000
    N47      N        0.37541    0.41366    0.53977    1.000
    O141     O        0.40074    0.42730    0.47507    1.000
    N48      N        0.33445    0.46002    0.48377    1.000
    O142     O        0.34849    0.39009    0.50177    1.000
    O143     O        0.36092    0.47850    0.54027    1.000
    O144     O        0.32988    0.46897    0.38567    1.000
    Cu13     Cu       0.30927    0.15464    0.58095    1.000
    O145     O        0.28898    0.17475    0.68400    1.000
    C169     C        0.30266    0.19070    0.78100    1.000
    C170     C        0.28483    0.20623    0.84690    1.000
    C171     C        0.23549    0.25210    0.03160    1.000
    C172     C        0.28160    0.23796    0.01330    1.000
    C173     C        0.25182    0.23514    0.96850    1.000
    C174     C        0.29801    0.22343    0.95450    1.000
    H49      H        0.31770    0.22530    0.98730    1.000
    C175     C        0.25486    0.20215    0.80060    1.000
    H50      H        0.24520    0.18930    0.73050    1.000
    C176     C        0.23945    0.21767    0.86110    1.000
    O146     O        0.30686    0.23961    0.19070    1.000
    O147     O        0.29171    0.27652    0.16480    1.000
    N49      N        0.29511    0.25290    0.12700    1.000
    O148     O        0.32952    0.19465    0.82920    1.000
    C177     C        0.22344    0.29803    0.04490    1.000
    H51      H        0.22510    0.31750    0.01160    1.000
    C178     C        0.20638    0.28481    0.15430    1.000
    C179     C        0.23782    0.28147    0.98700    1.000
    C180     C        0.20242    0.25503    0.19910    1.000
    H52      H        0.18950    0.24530    0.26900    1.000
    C181     C        0.21780    0.23958    0.13950    1.000
    C182     C        0.19075    0.30266    0.21920    1.000
    O149     O        0.17484    0.28903    0.31660    1.000
    O150     O        0.19479    0.32961    0.17100    1.000
    N50      N        0.20772    0.20654    0.18130    1.000
    O151     O        0.21595    0.18825    0.12730    1.000
    O152     O        0.19470    0.19820    0.28250    1.000
    N51      N        0.25301    0.29509    0.87310    1.000
    O153     O        0.23937    0.30678    0.80840    1.000
    N52      N        0.20665    0.20777    0.81710    1.000
    O154     O        0.27658    0.29174    0.83510    1.000
    O155     O        0.18817    0.21576    0.87360    1.000
    O156     O        0.19770    0.19425    0.71900    1.000
    Cu14     Cu       0.97593    0.48798    0.91428    1.000
    O157     O        0.95565    0.50808    0.01733    1.000
    C183     C        0.96933    0.52403    0.11433    1.000
    C184     C        0.95150    0.53956    0.18023    1.000
    C185     C        0.90216    0.58543    0.36493    1.000
    C186     C        0.94827    0.57129    0.34663    1.000
    C187     C        0.91849    0.56847    0.30183    1.000
    C188     C        0.96468    0.55676    0.28783    1.000
    H53      H        0.98437    0.55863    0.32063    1.000
    C189     C        0.92153    0.53548    0.13393    1.000
    H54      H        0.91187    0.52263    0.06383    1.000
    C190     C        0.90612    0.55100    0.19443    1.000
    O158     O        0.97353    0.57294    0.52403    1.000
    O159     O        0.95838    0.60985    0.49813    1.000
    N53      N        0.96178    0.58623    0.46033    1.000
    O160     O        0.99619    0.52798    0.16253    1.000
    C191     C        0.89011    0.63136    0.37823    1.000
    H55      H        0.89177    0.65083    0.34493    1.000
    C192     C        0.87305    0.61814    0.48763    1.000
    C193     C        0.90449    0.61480    0.32033    1.000
    C194     C        0.86909    0.58836    0.53243    1.000
    H56      H        0.85617    0.57863    0.60233    1.000
    C195     C        0.88447    0.57291    0.47283    1.000
    C196     C        0.85742    0.63599    0.55253    1.000
    O161     O        0.84151    0.62236    0.64993    1.000
    O162     O        0.86146    0.66294    0.50433    1.000
    N54      N        0.87439    0.53987    0.51463    1.000
    O163     O        0.88262    0.52158    0.46063    1.000
    O164     O        0.86137    0.53153    0.61583    1.000
    N55      N        0.91968    0.62842    0.20643    1.000
    O165     O        0.90604    0.64011    0.14173    1.000
    N56      N        0.87332    0.54110    0.15043    1.000
    O166     O        0.94325    0.62507    0.16843    1.000
    O167     O        0.85484    0.54909    0.20693    1.000
    O168     O        0.86437    0.52758    0.05233    1.000
    Cu15     Cu       0.64260    0.82131    0.24762    1.000
    O169     O        0.62231    0.84142    0.35067    1.000
    C197     C        0.63599    0.85737    0.44767    1.000
    C198     C        0.61816    0.87290    0.51357    1.000
    C199     C        0.56882    0.91877    0.69827    1.000
    C200     C        0.61493    0.90463    0.67997    1.000
    C201     C        0.58515    0.90181    0.63517    1.000
    C202     C        0.63134    0.89010    0.62117    1.000
    H57      H        0.65103    0.89197    0.65397    1.000
    C203     C        0.58819    0.86882    0.46727    1.000
    H58      H        0.57853    0.85597    0.39717    1.000
    C204     C        0.57278    0.88434    0.52777    1.000
    O170     O        0.64019    0.90628    0.85737    1.000
    O171     O        0.62504    0.94319    0.83147    1.000
    N57      N        0.62844    0.91957    0.79367    1.000
    O172     O        0.66285    0.86132    0.49587    1.000
    C205     C        0.55677    0.96470    0.71157    1.000
    H59      H        0.55843    0.98417    0.67827    1.000
    C206     C        0.53971    0.95148    0.82097    1.000
    C207     C        0.57115    0.94814    0.65367    1.000
    C208     C        0.53575    0.92170    0.86577    1.000
    H60      H        0.52283    0.91197    0.93567    1.000
    C209     C        0.55113    0.90625    0.80617    1.000
    C210     C        0.52408    0.96933    0.88587    1.000
    O173     O        0.50817    0.95570    0.98327    1.000
    O174     O        0.52812    0.99628    0.83767    1.000
    N58      N        0.54105    0.87321    0.84797    1.000
    O175     O        0.54928    0.85492    0.79397    1.000
    O176     O        0.52803    0.86487    0.94917    1.000
    N59      N        0.58634    0.96176    0.53977    1.000
    O177     O        0.57270    0.97345    0.47507    1.000
    N60      N        0.53998    0.87444    0.48377    1.000
    O178     O        0.60991    0.95841    0.50177    1.000
    O179     O        0.52150    0.88243    0.54027    1.000
    O180     O        0.53103    0.86092    0.38567    1.000
    Cu16     Cu       0.84536    0.15462    0.58095    1.000
    O181     O        0.82525    0.11423    0.68400    1.000
    C211     C        0.80930    0.11196    0.78100    1.000
    C212     C        0.79377    0.07860    0.84690    1.000
    C213     C        0.74790    0.98339    0.03160    1.000
    C214     C        0.76204    0.04364    0.01330    1.000
    C215     C        0.76486    0.01668    0.96850    1.000
    C216     C        0.77657    0.07458    0.95450    1.000
    H61      H        0.77470    0.09240    0.98730    1.000
    C217     C        0.79785    0.05271    0.80060    1.000
    H62      H        0.81070    0.05590    0.73050    1.000
    C218     C        0.78233    0.02178    0.86110    1.000
    O182     O        0.76039    0.06725    0.19070    1.000
    O183     O        0.72348    0.01519    0.16480    1.000
    N61      N        0.74710    0.04221    0.12700    1.000
    O184     O        0.80535    0.13487    0.82920    1.000
    C219     C        0.70197    0.92541    0.04490    1.000
    H63      H        0.68250    0.90760    0.01160    1.000
    C220     C        0.71519    0.92157    0.15430    1.000
    C221     C        0.71853    0.95635    0.98700    1.000
    C222     C        0.74497    0.94739    0.19910    1.000
    H64      H        0.75470    0.94420    0.26900    1.000
    C223     C        0.76042    0.97822    0.13950    1.000
    C224     C        0.69734    0.88809    0.21920    1.000
    O185     O        0.71097    0.88581    0.31660    1.000
    O186     O        0.67039    0.86518    0.17100    1.000
    N62      N        0.79346    0.00118    0.18130    1.000
    O187     O        0.81175    0.02770    0.12730    1.000
    O188     O        0.80180    0.99650    0.28250    1.000
    N63      N        0.70491    0.95792    0.87310    1.000
    O189     O        0.69322    0.93259    0.80840    1.000
    N64      N        0.79223    0.99888    0.81710    1.000
    O190     O        0.70826    0.98484    0.83510    1.000
    O191     O        0.78424    0.97241    0.87360    1.000
    O192     O        0.80575    0.00345    0.71900    1.000
    Cu17     Cu       0.51202    0.48796    0.91428    1.000
    O193     O        0.49192    0.44756    0.01733    1.000
    C225     C        0.47597    0.44529    0.11433    1.000
    C226     C        0.46044    0.41193    0.18023    1.000
    C227     C        0.41457    0.31672    0.36493    1.000
    C228     C        0.42871    0.37697    0.34663    1.000
    C229     C        0.43153    0.35001    0.30183    1.000
    C230     C        0.44324    0.40791    0.28783    1.000
    H65      H        0.44137    0.42573    0.32063    1.000
    C231     C        0.46452    0.38604    0.13393    1.000
    H66      H        0.47737    0.38923    0.06383    1.000
    C232     C        0.44900    0.35511    0.19443    1.000
    O194     O        0.42706    0.40058    0.52403    1.000
    O195     O        0.39015    0.34852    0.49813    1.000
    N65      N        0.41377    0.37554    0.46033    1.000
    O196     O        0.47202    0.46820    0.16253    1.000
    C233     C        0.36864    0.25874    0.37823    1.000
    H67      H        0.34917    0.24093    0.34493    1.000
    C234     C        0.38186    0.25490    0.48763    1.000
    C235     C        0.38520    0.28968    0.32033    1.000
    C236     C        0.41164    0.28072    0.53243    1.000
    H68      H        0.42137    0.27753    0.60233    1.000
    C237     C        0.42709    0.31155    0.47283    1.000
    C238     C        0.36401    0.22142    0.55253    1.000
    O197     O        0.37764    0.21914    0.64993    1.000
    O198     O        0.33706    0.19851    0.50433    1.000
    N66      N        0.46013    0.33451    0.51463    1.000
    O199     O        0.47842    0.36103    0.46063    1.000
    O200     O        0.46847    0.32983    0.61583    1.000
    N67      N        0.37158    0.29125    0.20643    1.000
    O201     O        0.35989    0.26592    0.14173    1.000
    N68      N        0.45890    0.33221    0.15043    1.000
    O202     O        0.37493    0.31817    0.16843    1.000
    O203     O        0.45091    0.30574    0.20693    1.000
    O204     O        0.47242    0.33678    0.05233    1.000
    Cu18     Cu       0.17869    0.82129    0.24762    1.000
    O205     O        0.15858    0.78090    0.35067    1.000
    C239     C        0.14263    0.77863    0.44767    1.000
    C240     C        0.12710    0.74527    0.51357    1.000
    C241     C        0.08123    0.65006    0.69827    1.000
    C242     C        0.09537    0.71031    0.67997    1.000
    C243     C        0.09819    0.68335    0.63517    1.000
    C244     C        0.10990    0.74125    0.62117    1.000
    H69      H        0.10803    0.75907    0.65397    1.000
    C245     C        0.13118    0.71938    0.46727    1.000
    H70      H        0.14403    0.72257    0.39717    1.000
    C246     C        0.11566    0.68845    0.52777    1.000
    O206     O        0.09372    0.73392    0.85737    1.000
    O207     O        0.05681    0.68186    0.83147    1.000
    N69      N        0.08043    0.70888    0.79367    1.000
    O208     O        0.13868    0.80154    0.49587    1.000
    C247     C        0.03530    0.59208    0.71157    1.000
    H71      H        0.01583    0.57427    0.67827    1.000
    C248     C        0.04852    0.58824    0.82097    1.000
    C249     C        0.05186    0.62302    0.65367    1.000
    C250     C        0.07830    0.61406    0.86577    1.000
    H72      H        0.08803    0.61087    0.93567    1.000
    C251     C        0.09375    0.64489    0.80617    1.000
    C252     C        0.03067    0.55476    0.88587    1.000
    O209     O        0.04430    0.55248    0.98327    1.000
    O210     O        0.00372    0.53185    0.83767    1.000
    N70      N        0.12679    0.66785    0.84797    1.000
    O211     O        0.14508    0.69437    0.79397    1.000
    O212     O        0.13513    0.66317    0.94917    1.000
    N71      N        0.03824    0.62459    0.53977    1.000
    O213     O        0.02655    0.59926    0.47507    1.000
    N72      N        0.12556    0.66555    0.48377    1.000
    O214     O        0.04159    0.65151    0.50177    1.000
    O215     O        0.11757    0.63908    0.54027    1.000
    O216     O        0.13908    0.67012    0.38567    1.000
