# CIF file generated by openbabel 3.1.0, see https://openbabel.org
data_I
_chemical_name_common 'image0'
_cell_length_a 8.8246
_cell_length_b 11.7336
_cell_length_c 8.3258
_cell_angle_alpha 90
_cell_angle_beta 90
_cell_angle_gamma 90
_space_group_name_H-M_alt 'P 1'
_space_group_name_Hall 'P 1'
loop_
    _symmetry_equiv_pos_as_xyz
    x,y,z
loop_
    _atom_site_label
    _atom_site_type_symbol
    _atom_site_fract_x
    _atom_site_fract_y
    _atom_site_fract_z
    _atom_site_occupancy
    O1       O        0.58295    0.32212    0.58916    1.000
    O2       O        0.23851    0.09409    0.38752    1.000
    O3       O        0.41520    0.31665    0.39495    1.000
    C1       C        0.46995    0.28163    0.52333    1.000
    H1       H        0.42430    0.21720    0.56750    1.000
    O4       O        0.91705    0.67788    0.58916    1.000
    O5       O        0.26149    0.90591    0.38752    1.000
    O6       O        0.08480    0.68335    0.39495    1.000
    C2       C        0.03005    0.71837    0.52333    1.000
    H2       H        0.07570    0.78280    0.56750    1.000
    O7       O        0.91705    0.82212    0.91084    1.000
    O8       O        0.26149    0.59409    0.11248    1.000
    O9       O        0.08480    0.81665    0.10505    1.000
    C3       C        0.03005    0.78163    0.97667    1.000
    H3       H        0.07570    0.71720    0.93250    1.000
    O10      O        0.58295    0.17788    0.91084    1.000
    O11      O        0.23851    0.40591    0.11248    1.000
    O12      O        0.41520    0.18335    0.10505    1.000
    C4       C        0.46995    0.21837    0.97667    1.000
    H4       H        0.42430    0.28280    0.93250    1.000
    O13      O        0.41705    0.67788    0.41084    1.000
    O14      O        0.76149    0.90591    0.61248    1.000
    O15      O        0.58480    0.68335    0.60505    1.000
    C5       C        0.53005    0.71837    0.47667    1.000
    H5       H        0.57570    0.78280    0.43250    1.000
    O16      O        0.08295    0.32212    0.41084    1.000
    O17      O        0.73851    0.09409    0.61248    1.000
    O18      O        0.91520    0.31665    0.60505    1.000
    C6       C        0.96995    0.28163    0.47667    1.000
    H6       H        0.92430    0.21720    0.43250    1.000
    O19      O        0.08295    0.17788    0.08916    1.000
    O20      O        0.73851    0.40591    0.88752    1.000
    O21      O        0.91520    0.18335    0.89495    1.000
    C7       C        0.96995    0.21837    0.02333    1.000
    H7       H        0.92430    0.28280    0.06750    1.000
    O22      O        0.41705    0.82212    0.08916    1.000
    O23      O        0.76149    0.59409    0.88752    1.000
    O24      O        0.58480    0.81665    0.89495    1.000
    C8       C        0.53005    0.78163    0.02333    1.000
    H8       H        0.57570    0.71720    0.06750    1.000
    Fe1      Fe       0.23846    0.25000    0.25000    1.000
    Fe2      Fe       0.26154    0.75000    0.25000    1.000
    Fe3      Fe       0.76154    0.75000    0.75000    1.000
    Fe4      Fe       0.73846    0.25000    0.75000    1.000
    C9       C        0.25000    0.00000    0.31910    1.000
    H9       H        0.25000    0.00000    0.20740    1.000
    C10      C        0.25000    0.50000    0.18090    1.000
    H10      H        0.25000    0.50000    0.29260    1.000
    C11      C        0.75000    0.00000    0.68090    1.000
    H11      H        0.75000    0.00000    0.79260    1.000
    C12      C        0.75000    0.50000    0.81910    1.000
    H12      H        0.75000    0.50000    0.70740    1.000
