# CIF file generated by openbabel 3.1.0, see https://openbabel.org
data_I
_chemical_name_common 'image0'
_cell_length_a 9.547
_cell_length_b 11.499
_cell_length_c 11.592
_cell_angle_alpha 108.941
_cell_angle_beta 111.851
_cell_angle_gamma 92.174
_space_group_name_H-M_alt 'P 1'
_space_group_name_Hall 'P 1'
loop_
    _symmetry_equiv_pos_as_xyz
    x,y,z
loop_
    _atom_site_label
    _atom_site_type_symbol
    _atom_site_fract_x
    _atom_site_fract_y
    _atom_site_fract_z
    _atom_site_occupancy
    Nd1      Nd       0.71452    0.97750    0.52573    1.000
    O1       O        0.50980    0.06540    0.40940    1.000
    O2       O        0.26050    0.11290    0.29650    1.000
    O3       O        0.41810    0.03370    0.15940    1.000
    O4       O        0.54920    0.79210    0.36140    1.000
    O5       O        0.27420    0.83380    0.30000    1.000
    O6       O        0.33640    0.62690    0.31440    1.000
    O7       O        0.98670    0.06460    0.66890    1.000
    O8       O        0.19610    0.95720    0.61350    1.000
    O9       O        0.24270    0.16360    0.83040    1.000
    O10      O        0.91260    0.83760    0.54090    1.000
    O11      O        0.87020    0.81310    0.45360    1.000
    P1       P        0.42050    0.10576    0.29406    1.000
    P2       P        0.38010    0.74013    0.28632    1.000
    P3       P        0.13930    0.03980    0.72460    1.000
    P4       P        0.05550    0.94090    0.64020    1.000
    N1       N        0.52270    0.37110    0.44270    1.000
    H1       H        0.56800    0.35480    0.51870    1.000
    N2       N        0.41070    0.57390    0.06290    1.000
    H2       H        0.36450    0.51010    0.07400    1.000
    N3       N        0.03100    0.95630    0.88030    1.000
    H3       H        0.93290    0.93370    0.81720    1.000
    C1       C        0.51620    0.26210    0.32860    1.000
    H4       H        0.62120    0.25630    0.33950    1.000
    H5       H        0.46740    0.28140    0.24880    1.000
    C2       C        0.34080    0.68480    0.10880    1.000
    H6       H        0.23060    0.66320    0.05760    1.000
    H7       H        0.37900    0.75250    0.08960    1.000
    C3       C        0.36790    0.40050    0.43140    1.000
    H8       H        0.30690    0.33030    0.43000    1.000
    H9       H        0.31600    0.41330    0.34810    1.000
    C4       C        0.61940    0.48350    0.45320    1.000
    H10      H        0.57480    0.49910    0.37070    1.000
    H11      H        0.72140    0.46620    0.46470    1.000
    C5       C        0.36920    0.53440    0.91570    1.000
    H12      H        0.41420    0.60050    0.89840    1.000
    H13      H        0.25860    0.52160    0.86870    1.000
    C6       C        0.57460    0.58520    0.13660    1.000
    H14      H        0.59680    0.60460    0.23030    1.000
    H15      H        0.62930    0.65350    0.12940    1.000
    C7       C        0.13800    0.92830    0.80990    1.000
    H16      H        0.10470    0.84350    0.74490    1.000
    H17      H        0.24090    0.93480    0.87430    1.000
    C8       C        0.04910    0.88110    0.96710    1.000
    H18      H        0.02750    0.79280    0.91280    1.000
    H19      H        0.15430    0.90140    0.03290    1.000
    C9       C        0.05690    0.09350    0.96340    1.000
    H20      H        0.16220    0.12000    0.02910    1.000
    H21      H        0.04080    0.14170    0.90620    1.000
    Nd2      Nd       0.28548    0.02250    0.47427    1.000
    O12      O        0.49020    0.93460    0.59060    1.000
    O13      O        0.73950    0.88710    0.70350    1.000
    O14      O        0.58190    0.96630    0.84060    1.000
    O15      O        0.45080    0.20790    0.63860    1.000
    O16      O        0.72580    0.16620    0.70000    1.000
    O17      O        0.66360    0.37310    0.68560    1.000
    O18      O        0.01330    0.93540    0.33110    1.000
    O19      O        0.80390    0.04280    0.38650    1.000
    O20      O        0.75730    0.83640    0.16960    1.000
    O21      O        0.08740    0.16240    0.45910    1.000
    O22      O        0.12980    0.18690    0.54640    1.000
    P5       P        0.57950    0.89424    0.70594    1.000
    P6       P        0.61990    0.25987    0.71368    1.000
    P7       P        0.86070    0.96020    0.27540    1.000
    P8       P        0.94450    0.05910    0.35980    1.000
    N4       N        0.47730    0.62890    0.55730    1.000
    H22      H        0.43200    0.64520    0.48130    1.000
    N5       N        0.58930    0.42610    0.93710    1.000
    H23      H        0.63550    0.48990    0.92600    1.000
    N6       N        0.96900    0.04370    0.11970    1.000
    H24      H        0.06710    0.06630    0.18280    1.000
    C10      C        0.48380    0.73790    0.67140    1.000
    H25      H        0.37880    0.74370    0.66050    1.000
    H26      H        0.53260    0.71860    0.75120    1.000
    C11      C        0.65920    0.31520    0.89120    1.000
    H27      H        0.76940    0.33680    0.94240    1.000
    H28      H        0.62100    0.24750    0.91040    1.000
    C12      C        0.63210    0.59950    0.56860    1.000
    H29      H        0.69310    0.66970    0.57000    1.000
    H30      H        0.68400    0.58670    0.65190    1.000
    C13      C        0.38060    0.51650    0.54680    1.000
    H31      H        0.42520    0.50090    0.62930    1.000
    H32      H        0.27860    0.53380    0.53530    1.000
    C14      C        0.63080    0.46560    0.08430    1.000
    H33      H        0.58580    0.39950    0.10160    1.000
    H34      H        0.74140    0.47840    0.13130    1.000
    C15      C        0.42540    0.41480    0.86340    1.000
    H35      H        0.40320    0.39540    0.76970    1.000
    H36      H        0.37070    0.34650    0.87060    1.000
    C16      C        0.86200    0.07170    0.19010    1.000
    H37      H        0.89530    0.15650    0.25510    1.000
    H38      H        0.75910    0.06520    0.12570    1.000
    C17      C        0.95090    0.11890    0.03290    1.000
    H39      H        0.97250    0.20720    0.08720    1.000
    H40      H        0.84570    0.09860    0.96710    1.000
    C18      C        0.94310    0.90650    0.03660    1.000
    H41      H        0.83780    0.88000    0.97090    1.000
    H42      H        0.95920    0.85830    0.09380    1.000
