# CIF file generated by openbabel 3.1.0, see https://openbabel.org
data_I
_chemical_name_common 'image0'
_cell_length_a 8.8475
_cell_length_b 10.716
_cell_length_c 18.895
_cell_angle_alpha 75.521
_cell_angle_beta 83.777
_cell_angle_gamma 69.306
_space_group_name_H-M_alt 'P 1'
_space_group_name_Hall 'P 1'
loop_
    _symmetry_equiv_pos_as_xyz
    x,y,z
loop_
    _atom_site_label
    _atom_site_type_symbol
    _atom_site_fract_x
    _atom_site_fract_y
    _atom_site_fract_z
    _atom_site_occupancy
    Sm1      Sm       0.00220    0.41200    0.28695    1.000
    Sm2      Sm       0.39655    0.53203    0.22375    1.000
    C1       C        0.52600    0.31420    0.43950    1.000
    H1       H        0.55740    0.29240    0.39430    1.000
    C2       C        0.36140    0.37140    0.45440    1.000
    C3       C        0.31200    0.40340    0.52140    1.000
    H2       H        0.20290    0.44140    0.53290    1.000
    C4       C        0.43160    0.37700    0.57210    1.000
    C5       C        0.59150    0.31920    0.55280    1.000
    H3       H        0.66940    0.29990    0.58700    1.000
    C6       C        0.24430    0.40010    0.39610    1.000
    C7       C        0.38570    0.41630    0.64390    1.000
    C8       C        0.90050    0.69140    0.91620    1.000
    H4       H        0.93680    0.71350    0.86820    1.000
    C9       C        0.76950    0.64310    0.92970    1.000
    C10      C        0.71050    0.61540    0.00100    1.000
    H5       H        0.62050    0.58770    0.01120    1.000
    C11      C        0.78930    0.63010    0.05690    1.000
    C12      C        0.92210    0.67630    0.03710    1.000
    H6       H        0.97560    0.68560    0.07410    1.000
    C13      C        0.74480    0.59220    0.13600    1.000
    C14      C        0.70080    0.61200    0.87020    1.000
    C15      C        0.63210    0.07230    0.24390    1.000
    H7       H        0.53420    0.14400    0.24200    1.000
    C16      C        0.77280    0.84760    0.24570    1.000
    H8       H        0.77330    0.76100    0.24490    1.000
    C17      C        0.91820    0.86440    0.24980    1.000
    C18      C        0.91810    0.99420    0.24890    1.000
    H9       H        0.01520    0.00950    0.24920    1.000
    C19      C        0.77250    0.10110    0.24750    1.000
    C20      C        0.76290    0.24410    0.24790    1.000
    C21      C        0.07240    0.74230    0.25400    1.000
    N1       N        0.64180    0.28870    0.48700    1.000
    N2       N        0.97510    0.70710    0.96930    1.000
    N3       N        0.62770    0.95110    0.24290    1.000
    O1       O        0.09460    0.42930    0.41130    1.000
    O2       O        0.29680    0.39370    0.33150    1.000
    O3       O        0.23410    0.46050    0.66010    1.000
    O4       O        0.49470    0.41040    0.68260    1.000
    O5       O        0.85150    0.55570    0.18050    1.000
    O6       O        0.59790    0.60200    0.15040    1.000
    O7       O        0.56760    0.58930    0.88120    1.000
    O8       O        0.78020    0.60160    0.81050    1.000
    O9       O        0.62420    0.32690    0.25650    1.000
    O10      O        0.89250    0.26780    0.24130    1.000
    O11      O        0.20430    0.75920    0.25350    1.000
    O12      O        0.06270    0.62920    0.25560    1.000
    Sm3      Sm       0.99780    0.58800    0.71305    1.000
    Sm4      Sm       0.60345    0.46797    0.77625    1.000
    C22      C        0.47400    0.68580    0.56050    1.000
    H10      H        0.44260    0.70760    0.60570    1.000
    C23      C        0.63860    0.62860    0.54560    1.000
    C24      C        0.68800    0.59660    0.47860    1.000
    H11      H        0.79710    0.55860    0.46710    1.000
    C25      C        0.56840    0.62300    0.42790    1.000
    C26      C        0.40850    0.68080    0.44720    1.000
    H12      H        0.33060    0.70010    0.41300    1.000
    C27      C        0.75570    0.59990    0.60390    1.000
    C28      C        0.61430    0.58370    0.35610    1.000
    C29      C        0.09950    0.30860    0.08380    1.000
    H13      H        0.06320    0.28650    0.13180    1.000
    C30      C        0.23050    0.35690    0.07030    1.000
    C31      C        0.28950    0.38460    0.99900    1.000
    H14      H        0.37950    0.41230    0.98880    1.000
    C32      C        0.21070    0.36990    0.94310    1.000
    C33      C        0.07790    0.32370    0.96290    1.000
    H15      H        0.02440    0.31440    0.92590    1.000
    C34      C        0.25520    0.40780    0.86400    1.000
    C35      C        0.29920    0.38800    0.12980    1.000
    C36      C        0.36790    0.92770    0.75610    1.000
    H16      H        0.46580    0.85600    0.75800    1.000
    C37      C        0.22720    0.15240    0.75430    1.000
    H17      H        0.22670    0.23900    0.75510    1.000
    C38      C        0.08180    0.13560    0.75020    1.000
    C39      C        0.08190    0.00580    0.75110    1.000
    H18      H        0.98480    0.99050    0.75080    1.000
    C40      C        0.22750    0.89890    0.75250    1.000
    C41      C        0.23710    0.75590    0.75210    1.000
    C42      C        0.92760    0.25770    0.74600    1.000
    N4       N        0.35820    0.71130    0.51300    1.000
    N5       N        0.02490    0.29290    0.03070    1.000
    N6       N        0.37230    0.04890    0.75710    1.000
    O13      O        0.90540    0.57070    0.58870    1.000
    O14      O        0.70320    0.60630    0.66850    1.000
    O15      O        0.76590    0.53950    0.33990    1.000
    O16      O        0.50530    0.58960    0.31740    1.000
    O17      O        0.14850    0.44430    0.81950    1.000
    O18      O        0.40210    0.39800    0.84960    1.000
    O19      O        0.43240    0.41070    0.11880    1.000
    O20      O        0.21980    0.39840    0.18950    1.000
    O21      O        0.37580    0.67310    0.74350    1.000
    O22      O        0.10750    0.73220    0.75870    1.000
    O23      O        0.79570    0.24080    0.74650    1.000
    O24      O        0.93730    0.37080    0.74440    1.000
