# CIF file generated by openbabel 3.1.0, see https://openbabel.org
data_I
_chemical_name_common 'image0'
_cell_length_a 7.4196
_cell_length_b 16.7276
_cell_length_c 15.4905
_cell_angle_alpha 90
_cell_angle_beta 113.207
_cell_angle_gamma 90
_space_group_name_H-M_alt 'P 1'
_space_group_name_Hall 'P 1'
loop_
    _symmetry_equiv_pos_as_xyz
    x,y,z
loop_
    _atom_site_label
    _atom_site_type_symbol
    _atom_site_fract_x
    _atom_site_fract_y
    _atom_site_fract_z
    _atom_site_occupancy
    Zn1      Zn       0.46318    0.98302    0.18370    1.000
    Zn2      Zn       0.28995    0.87559    0.97764    1.000
    C1       C        0.06630    0.84010    0.09480    1.000
    C2       C        0.00820    0.77760    0.14800    1.000
    C3       C        0.13260    0.71310    0.18420    1.000
    H1       H        0.24280    0.70790    0.17020    1.000
    C4       C        0.83770    0.78350    0.16520    1.000
    C5       C        0.09760    0.65610    0.24110    1.000
    C6       C        0.92660    0.66140    0.25830    1.000
    C7       C        0.79760    0.72420    0.21820    1.000
    H2       H        0.68090    0.72670    0.22710    1.000
    C8       C        0.68730    0.84830    0.12820    1.000
    C9       C        0.86970    0.60140    0.31490    1.000
    C10      C        0.25090    0.59280    0.28010    1.000
    O1       O        0.19380    0.81900    0.06450    1.000
    O2       O        0.98510    0.90630    0.08410    1.000
    O3       O        0.57900    0.84670    0.04210    1.000
    O4       O        0.67440    0.89610    0.18710    1.000
    O5       O        0.99260    0.58460    0.39500    1.000
    O6       O        0.70050    0.57390    0.27900    1.000
    O7       O        0.34390    0.58500    0.36680    1.000
    O8       O        0.29340    0.55080    0.22390    1.000
    O9       O        0.29910    0.98440    0.04390    1.000
    H3       H        0.34010    0.03020    0.02270    1.000
    Zn3      Zn       0.53682    0.48302    0.31630    1.000
    Zn4      Zn       0.71005    0.37559    0.52236    1.000
    C11      C        0.93370    0.34010    0.40520    1.000
    C12      C        0.99180    0.27760    0.35200    1.000
    C13      C        0.86740    0.21310    0.31580    1.000
    H4       H        0.75720    0.20790    0.32980    1.000
    C14      C        0.16230    0.28350    0.33480    1.000
    C15      C        0.90240    0.15610    0.25890    1.000
    C16      C        0.07340    0.16140    0.24170    1.000
    C17      C        0.20240    0.22420    0.28180    1.000
    H5       H        0.31910    0.22670    0.27290    1.000
    C18      C        0.31270    0.34830    0.37180    1.000
    C19      C        0.13030    0.10140    0.18510    1.000
    C20      C        0.74910    0.09280    0.21990    1.000
    O10      O        0.80620    0.31900    0.43550    1.000
    O11      O        0.01490    0.40630    0.41590    1.000
    O12      O        0.42100    0.34670    0.45790    1.000
    O13      O        0.32560    0.39610    0.31290    1.000
    O14      O        0.00740    0.08460    0.10500    1.000
    O15      O        0.29950    0.07390    0.22100    1.000
    O16      O        0.65610    0.08500    0.13320    1.000
    O17      O        0.70660    0.05080    0.27610    1.000
    O18      O        0.70090    0.48440    0.45610    1.000
    H6       H        0.65990    0.53020    0.47730    1.000
    Zn5      Zn       0.53682    0.01698    0.81630    1.000
    Zn6      Zn       0.71005    0.12441    0.02236    1.000
    C21      C        0.93370    0.15990    0.90520    1.000
    C22      C        0.99180    0.22240    0.85200    1.000
    C23      C        0.86740    0.28690    0.81580    1.000
    H7       H        0.75720    0.29210    0.82980    1.000
    C24      C        0.16230    0.21650    0.83480    1.000
    C25      C        0.90240    0.34390    0.75890    1.000
    C26      C        0.07340    0.33860    0.74170    1.000
    C27      C        0.20240    0.27580    0.78180    1.000
    H8       H        0.31910    0.27330    0.77290    1.000
    C28      C        0.31270    0.15170    0.87180    1.000
    C29      C        0.13030    0.39860    0.68510    1.000
    C30      C        0.74910    0.40720    0.71990    1.000
    O19      O        0.80620    0.18100    0.93550    1.000
    O20      O        0.01490    0.09370    0.91590    1.000
    O21      O        0.42100    0.15330    0.95790    1.000
    O22      O        0.32560    0.10390    0.81290    1.000
    O23      O        0.00740    0.41540    0.60500    1.000
    O24      O        0.29950    0.42610    0.72100    1.000
    O25      O        0.65610    0.41500    0.63320    1.000
    O26      O        0.70660    0.44920    0.77610    1.000
    O27      O        0.70090    0.01560    0.95610    1.000
    H9       H        0.65990    0.96980    0.97730    1.000
    Zn7      Zn       0.46318    0.51698    0.68370    1.000
    Zn8      Zn       0.28995    0.62441    0.47764    1.000
    C31      C        0.06630    0.65990    0.59480    1.000
    C32      C        0.00820    0.72240    0.64800    1.000
    C33      C        0.13260    0.78690    0.68420    1.000
    H10      H        0.24280    0.79210    0.67020    1.000
    C34      C        0.83770    0.71650    0.66520    1.000
    C35      C        0.09760    0.84390    0.74110    1.000
    C36      C        0.92660    0.83860    0.75830    1.000
    C37      C        0.79760    0.77580    0.71820    1.000
    H11      H        0.68090    0.77330    0.72710    1.000
    C38      C        0.68730    0.65170    0.62820    1.000
    C39      C        0.86970    0.89860    0.81490    1.000
    C40      C        0.25090    0.90720    0.78010    1.000
    O28      O        0.19380    0.68100    0.56450    1.000
    O29      O        0.98510    0.59370    0.58410    1.000
    O30      O        0.57900    0.65330    0.54210    1.000
    O31      O        0.67440    0.60390    0.68710    1.000
    O32      O        0.99260    0.91540    0.89500    1.000
    O33      O        0.70050    0.92610    0.77900    1.000
    O34      O        0.34390    0.91500    0.86680    1.000
    O35      O        0.29340    0.94920    0.72390    1.000
    O36      O        0.29910    0.51560    0.54390    1.000
    H12      H        0.34010    0.46980    0.52270    1.000
    Zn9      Zn       0.00000    0.00000    0.00000    1.000
    Zn10     Zn       0.00000    0.50000    0.50000    1.000
