# CIF file generated by openbabel 3.1.0, see https://openbabel.org
data_I
_chemical_name_common 'image0'
_cell_length_a 9.8457
_cell_length_b 19.4937
_cell_length_c 16.7455
_cell_angle_alpha 90
_cell_angle_beta 94.348
_cell_angle_gamma 90
_space_group_name_H-M_alt 'P 1'
_space_group_name_Hall 'P 1'
loop_
    _symmetry_equiv_pos_as_xyz
    x,y,z
loop_
    _atom_site_label
    _atom_site_type_symbol
    _atom_site_fract_x
    _atom_site_fract_y
    _atom_site_fract_z
    _atom_site_occupancy
    N1       N        0.44500    0.08905    0.41420    1.000
    N2       N        0.94540    0.41340    0.91220    1.000
    O1       O        0.14410    0.42745    0.05820    1.000
    O2       O        0.35230    0.47094    0.08453    1.000
    O3       O        0.63540    0.07037    0.56497    1.000
    O4       O        0.84980    0.03341    0.58026    1.000
    C1       C        0.26210    0.42670    0.09130    1.000
    C2       C        0.29680    0.36670    0.14620    1.000
    C3       C        0.25560    0.30100    0.12640    1.000
    H1       H        0.20560    0.29320    0.07790    1.000
    C4       C        0.28690    0.24640    0.17700    1.000
    H2       H        0.26090    0.20230    0.16110    1.000
    C5       C        0.35630    0.25620    0.25110    1.000
    C6       C        0.39660    0.32310    0.27160    1.000
    H3       H        0.44190    0.33150    0.32140    1.000
    C7       C        0.37020    0.37660    0.21930    1.000
    H4       H        0.40220    0.42030    0.23310    1.000
    C8       C        0.42670    0.07940    0.33540    1.000
    H5       H        0.43330    0.03490    0.31590    1.000
    C9       C        0.39840    0.13160    0.28130    1.000
    H6       H        0.38740    0.12190    0.22690    1.000
    C10      C        0.38620    0.19840    0.30760    1.000
    C11      C        0.40380    0.20840    0.38980    1.000
    H7       H        0.39540    0.25210    0.41110    1.000
    C12      C        0.43380    0.15320    0.43980    1.000
    H8       H        0.44700    0.16140    0.49450    1.000
    C13      C        0.75620    0.07460    0.59210    1.000
    C14      C        0.79100    0.13560    0.64590    1.000
    C15      C        0.69230    0.18170    0.66370    1.000
    H9       H        0.60350    0.17580    0.64170    1.000
    C16      C        0.72320    0.23670    0.71420    1.000
    H10      H        0.65490    0.26750    0.72530    1.000
    C17      C        0.85350    0.24660    0.74830    1.000
    C18      C        0.95290    0.20170    0.72760    1.000
    H11      H        0.04220    0.20850    0.74820    1.000
    C19      C        0.92310    0.14660    0.67670    1.000
    H12      H        0.99220    0.11720    0.66340    1.000
    C20      C        0.81870    0.39220    0.89450    1.000
    H13      H        0.74850    0.41450    0.91810    1.000
    C21      C        0.78610    0.33880    0.84290    1.000
    H14      H        0.69570    0.32530    0.83370    1.000
    C22      C        0.88590    0.30490    0.80460    1.000
    C23      C        0.01740    0.32740    0.82360    1.000
    H15      H        0.08940    0.30650    0.80020    1.000
    C24      C        0.04280    0.38060    0.87710    1.000
    H16      H        0.13270    0.39400    0.88910    1.000
    N3       N        0.55500    0.58905    0.08580    1.000
    N4       N        0.05460    0.91340    0.58780    1.000
    O5       O        0.85590    0.92745    0.44180    1.000
    O6       O        0.64770    0.97094    0.41547    1.000
    O7       O        0.36460    0.57037    0.93503    1.000
    O8       O        0.15020    0.53341    0.91974    1.000
    C25      C        0.73790    0.92670    0.40870    1.000
    C26      C        0.70320    0.86670    0.35380    1.000
    C27      C        0.74440    0.80100    0.37360    1.000
    H17      H        0.79440    0.79320    0.42210    1.000
    C28      C        0.71310    0.74640    0.32300    1.000
    H18      H        0.73910    0.70230    0.33890    1.000
    C29      C        0.64370    0.75620    0.24890    1.000
    C30      C        0.60340    0.82310    0.22840    1.000
    H19      H        0.55810    0.83150    0.17860    1.000
    C31      C        0.62980    0.87660    0.28070    1.000
    H20      H        0.59780    0.92030    0.26690    1.000
    C32      C        0.57330    0.57940    0.16460    1.000
    H21      H        0.56670    0.53490    0.18410    1.000
    C33      C        0.60160    0.63160    0.21870    1.000
    H22      H        0.61260    0.62190    0.27310    1.000
    C34      C        0.61380    0.69840    0.19240    1.000
    C35      C        0.59620    0.70840    0.11020    1.000
    H23      H        0.60460    0.75210    0.08890    1.000
    C36      C        0.56620    0.65320    0.06020    1.000
    H24      H        0.55300    0.66140    0.00550    1.000
    C37      C        0.24380    0.57460    0.90790    1.000
    C38      C        0.20900    0.63560    0.85410    1.000
    C39      C        0.30770    0.68170    0.83630    1.000
    H25      H        0.39650    0.67580    0.85830    1.000
    C40      C        0.27680    0.73670    0.78580    1.000
    H26      H        0.34510    0.76750    0.77470    1.000
    C41      C        0.14650    0.74660    0.75170    1.000
    C42      C        0.04710    0.70170    0.77240    1.000
    H27      H        0.95780    0.70850    0.75180    1.000
    C43      C        0.07690    0.64660    0.82330    1.000
    H28      H        0.00780    0.61720    0.83660    1.000
    C44      C        0.18130    0.89220    0.60550    1.000
    H29      H        0.25150    0.91450    0.58190    1.000
    C45      C        0.21390    0.83880    0.65710    1.000
    H30      H        0.30430    0.82530    0.66630    1.000
    C46      C        0.11410    0.80490    0.69540    1.000
    C47      C        0.98260    0.82740    0.67640    1.000
    H31      H        0.91060    0.80650    0.69980    1.000
    C48      C        0.95720    0.88060    0.62290    1.000
    H32      H        0.86730    0.89400    0.61090    1.000
    N5       N        0.55500    0.91095    0.58580    1.000
    N6       N        0.05460    0.58660    0.08780    1.000
    O9       O        0.85590    0.57255    0.94180    1.000
    O10      O        0.64770    0.52906    0.91547    1.000
    O11      O        0.36460    0.92963    0.43503    1.000
    O12      O        0.15020    0.96659    0.41974    1.000
    C49      C        0.73790    0.57330    0.90870    1.000
    C50      C        0.70320    0.63330    0.85380    1.000
    C51      C        0.74440    0.69900    0.87360    1.000
    H33      H        0.79440    0.70680    0.92210    1.000
    C52      C        0.71310    0.75360    0.82300    1.000
    H34      H        0.73910    0.79770    0.83890    1.000
    C53      C        0.64370    0.74380    0.74890    1.000
    C54      C        0.60340    0.67690    0.72840    1.000
    H35      H        0.55810    0.66850    0.67860    1.000
    C55      C        0.62980    0.62340    0.78070    1.000
    H36      H        0.59780    0.57970    0.76690    1.000
    C56      C        0.57330    0.92060    0.66460    1.000
    H37      H        0.56670    0.96510    0.68410    1.000
    C57      C        0.60160    0.86840    0.71870    1.000
    H38      H        0.61260    0.87810    0.77310    1.000
    C58      C        0.61380    0.80160    0.69240    1.000
    C59      C        0.59620    0.79160    0.61020    1.000
    H39      H        0.60460    0.74790    0.58890    1.000
    C60      C        0.56620    0.84680    0.56020    1.000
    H40      H        0.55300    0.83860    0.50550    1.000
    C61      C        0.24380    0.92540    0.40790    1.000
    C62      C        0.20900    0.86440    0.35410    1.000
    C63      C        0.30770    0.81830    0.33630    1.000
    H41      H        0.39650    0.82420    0.35830    1.000
    C64      C        0.27680    0.76330    0.28580    1.000
    H42      H        0.34510    0.73250    0.27470    1.000
    C65      C        0.14650    0.75340    0.25170    1.000
    C66      C        0.04710    0.79830    0.27240    1.000
    H43      H        0.95780    0.79150    0.25180    1.000
    C67      C        0.07690    0.85340    0.32330    1.000
    H44      H        0.00780    0.88280    0.33660    1.000
    C68      C        0.18130    0.60780    0.10550    1.000
    H45      H        0.25150    0.58550    0.08190    1.000
    C69      C        0.21390    0.66120    0.15710    1.000
    H46      H        0.30430    0.67470    0.16630    1.000
    C70      C        0.11410    0.69510    0.19540    1.000
    C71      C        0.98260    0.67260    0.17640    1.000
    H47      H        0.91060    0.69350    0.19980    1.000
    C72      C        0.95720    0.61940    0.12290    1.000
    H48      H        0.86730    0.60600    0.11090    1.000
    N7       N        0.44500    0.41095    0.91420    1.000
    N8       N        0.94540    0.08660    0.41220    1.000
    O13      O        0.14410    0.07255    0.55820    1.000
    O14      O        0.35230    0.02906    0.58453    1.000
    O15      O        0.63540    0.42963    0.06497    1.000
    O16      O        0.84980    0.46659    0.08026    1.000
    C73      C        0.26210    0.07330    0.59130    1.000
    C74      C        0.29680    0.13330    0.64620    1.000
    C75      C        0.25560    0.19900    0.62640    1.000
    H49      H        0.20560    0.20680    0.57790    1.000
    C76      C        0.28690    0.25360    0.67700    1.000
    H50      H        0.26090    0.29770    0.66110    1.000
    C77      C        0.35630    0.24380    0.75110    1.000
    C78      C        0.39660    0.17690    0.77160    1.000
    H51      H        0.44190    0.16850    0.82140    1.000
    C79      C        0.37020    0.12340    0.71930    1.000
    H52      H        0.40220    0.07970    0.73310    1.000
    C80      C        0.42670    0.42060    0.83540    1.000
    H53      H        0.43330    0.46510    0.81590    1.000
    C81      C        0.39840    0.36840    0.78130    1.000
    H54      H        0.38740    0.37810    0.72690    1.000
    C82      C        0.38620    0.30160    0.80760    1.000
    C83      C        0.40380    0.29160    0.88980    1.000
    H55      H        0.39540    0.24790    0.91110    1.000
    C84      C        0.43380    0.34680    0.93980    1.000
    H56      H        0.44700    0.33860    0.99450    1.000
    C85      C        0.75620    0.42540    0.09210    1.000
    C86      C        0.79100    0.36440    0.14590    1.000
    C87      C        0.69230    0.31830    0.16370    1.000
    H57      H        0.60350    0.32420    0.14170    1.000
    C88      C        0.72320    0.26330    0.21420    1.000
    H58      H        0.65490    0.23250    0.22530    1.000
    C89      C        0.85350    0.25340    0.24830    1.000
    C90      C        0.95290    0.29830    0.22760    1.000
    H59      H        0.04220    0.29150    0.24820    1.000
    C91      C        0.92310    0.35340    0.17670    1.000
    H60      H        0.99220    0.38280    0.16340    1.000
    C92      C        0.81870    0.10780    0.39450    1.000
    H61      H        0.74850    0.08550    0.41810    1.000
    C93      C        0.78610    0.16120    0.34290    1.000
    H62      H        0.69570    0.17470    0.33370    1.000
    C94      C        0.88590    0.19510    0.30460    1.000
    C95      C        0.01740    0.17260    0.32360    1.000
    H63      H        0.08940    0.19350    0.30020    1.000
    C96      C        0.04280    0.11940    0.37710    1.000
    H64      H        0.13270    0.10600    0.38910    1.000
    Mn1      Mn       0.50000    0.00000    0.50000    1.000
    Mn2      Mn       0.50000    0.50000    0.00000    1.000
    Mn3      Mn       0.00000    0.50000    0.00000    1.000
    Mn4      Mn       0.00000    0.00000    0.50000    1.000
