# CIF file generated by openbabel 3.1.0, see https://openbabel.org
data_I
_chemical_name_common 'image0'
_cell_length_a 26.865
_cell_length_b 12.937
_cell_length_c 23.858
_cell_angle_alpha 90
_cell_angle_beta 109.571
_cell_angle_gamma 90
_space_group_name_H-M_alt 'P 1'
_space_group_name_Hall 'P 1'
loop_
    _symmetry_equiv_pos_as_xyz
    x,y,z
loop_
    _atom_site_label
    _atom_site_type_symbol
    _atom_site_fract_x
    _atom_site_fract_y
    _atom_site_fract_z
    _atom_site_occupancy
    C1       C        0.11550    0.15360    0.77830    1.000
    N1       N        0.74038    0.52020    0.75730    1.000
    C2       C        0.76770    0.60350    0.78490    1.000
    H1       H        0.74960    0.66570    0.78260    1.000
    C3       C        0.76700    0.43170    0.76130    1.000
    H2       H        0.74880    0.37350    0.74230    1.000
    Cd1      Cd       0.15225    0.96753    0.20671    1.000
    N2       N        0.01608    0.50010    0.90860    1.000
    C4       C        0.01555    0.64550    0.97050    1.000
    C5       C        0.98628    0.57080    0.92360    1.000
    C6       C        0.90605    0.50500    0.85170    1.000
    C7       C        0.93144    0.57510    0.89650    1.000
    H3       H        0.91190    0.62460    0.90830    1.000
    C8       C        0.10230    0.85530    0.10760    1.000
    C9       C        0.00970    0.25370    0.83570    1.000
    H4       H        0.97810    0.23040    0.83920    1.000
    C10      C        0.06680    0.62220    0.00690    1.000
    H5       H        0.08230    0.56040    0.00170    1.000
    C11      C        0.99370    0.74010    0.97820    1.000
    H6       H        0.95980    0.75730    0.95370    1.000
    C12      C        0.93744    0.43120    0.83770    1.000
    H7       H        0.92230    0.38180    0.80860    1.000
    C13      C        0.09500    0.69050    0.05090    1.000
    H8       H        0.12900    0.67380    0.07530    1.000
    C14      C        0.99164    0.43160    0.86740    1.000
    C15      C        0.84852    0.51000    0.82070    1.000
    C16      C        0.07260    0.78330    0.05870    1.000
    C17      C        0.82010    0.60130    0.81600    1.000
    H9       H        0.83720    0.66110    0.83420    1.000
    C18      C        0.82011    0.42300    0.79230    1.000
    H10      H        0.83710    0.35970    0.79440    1.000
    C19      C        0.02170    0.80830    0.02150    1.000
    H11      H        0.00670    0.87120    0.02610    1.000
    C20      C        0.08660    0.22070    0.80900    1.000
    C21      C        0.07420    0.38710    0.84680    1.000
    H12      H        0.08630    0.45360    0.85870    1.000
    C22      C        0.02609    0.35470    0.85070    1.000
    C23      C        0.10380    0.32060    0.82540    1.000
    H13      H        0.13560    0.34300    0.82210    1.000
    C24      C        0.04040    0.18800    0.81570    1.000
    H14      H        0.02960    0.12000    0.80650    1.000
    O1       O        0.14578    0.82820    0.14210    1.000
    O2       O        0.08154    0.94180    0.11240    1.000
    O3       O        0.15635    0.18590    0.77230    1.000
    O4       O        0.09510    0.06990    0.75680    1.000
    C25      C        0.61550    0.65360    0.77830    1.000
    N3       N        0.24038    0.02020    0.75730    1.000
    C26      C        0.26770    0.10350    0.78490    1.000
    H15      H        0.24960    0.16570    0.78260    1.000
    C27      C        0.26700    0.93170    0.76130    1.000
    H16      H        0.24880    0.87350    0.74230    1.000
    Cd2      Cd       0.65225    0.46753    0.20671    1.000
    N4       N        0.51608    0.00010    0.90860    1.000
    C28      C        0.51555    0.14550    0.97050    1.000
    C29      C        0.48628    0.07080    0.92360    1.000
    C30      C        0.40605    0.00500    0.85170    1.000
    C31      C        0.43144    0.07510    0.89650    1.000
    H17      H        0.41190    0.12460    0.90830    1.000
    C32      C        0.60230    0.35530    0.10760    1.000
    C33      C        0.50970    0.75370    0.83570    1.000
    H18      H        0.47810    0.73040    0.83920    1.000
    C34      C        0.56680    0.12220    0.00690    1.000
    H19      H        0.58230    0.06040    0.00170    1.000
    C35      C        0.49370    0.24010    0.97820    1.000
    H20      H        0.45980    0.25730    0.95370    1.000
    C36      C        0.43744    0.93120    0.83770    1.000
    H21      H        0.42230    0.88180    0.80860    1.000
    C37      C        0.59500    0.19050    0.05090    1.000
    H22      H        0.62900    0.17380    0.07530    1.000
    C38      C        0.49164    0.93160    0.86740    1.000
    C39      C        0.34852    0.01000    0.82070    1.000
    C40      C        0.57260    0.28330    0.05870    1.000
    C41      C        0.32010    0.10130    0.81600    1.000
    H23      H        0.33720    0.16110    0.83420    1.000
    C42      C        0.32011    0.92300    0.79230    1.000
    H24      H        0.33710    0.85970    0.79440    1.000
    C43      C        0.52170    0.30830    0.02150    1.000
    H25      H        0.50670    0.37120    0.02610    1.000
    C44      C        0.58660    0.72070    0.80900    1.000
    C45      C        0.57420    0.88710    0.84680    1.000
    H26      H        0.58630    0.95360    0.85870    1.000
    C46      C        0.52609    0.85470    0.85070    1.000
    C47      C        0.60380    0.82060    0.82540    1.000
    H27      H        0.63560    0.84300    0.82210    1.000
    C48      C        0.54040    0.68800    0.81570    1.000
    H28      H        0.52960    0.62000    0.80650    1.000
    O5       O        0.64578    0.32820    0.14210    1.000
    O6       O        0.58154    0.44180    0.11240    1.000
    O7       O        0.65635    0.68590    0.77230    1.000
    O8       O        0.59510    0.56990    0.75680    1.000
    C49      C        0.11550    0.84640    0.27830    1.000
    N5       N        0.74038    0.47980    0.25730    1.000
    C50      C        0.76770    0.39650    0.28490    1.000
    H29      H        0.74960    0.33430    0.28260    1.000
    C51      C        0.76700    0.56830    0.26130    1.000
    H30      H        0.74880    0.62650    0.24230    1.000
    Cd3      Cd       0.15225    0.03247    0.70671    1.000
    N6       N        0.01608    0.49990    0.40860    1.000
    C52      C        0.01555    0.35450    0.47050    1.000
    C53      C        0.98628    0.42920    0.42360    1.000
    C54      C        0.90605    0.49500    0.35170    1.000
    C55      C        0.93144    0.42490    0.39650    1.000
    H31      H        0.91190    0.37540    0.40830    1.000
    C56      C        0.10230    0.14470    0.60760    1.000
    C57      C        0.00970    0.74630    0.33570    1.000
    H32      H        0.97810    0.76960    0.33920    1.000
    C58      C        0.06680    0.37780    0.50690    1.000
    H33      H        0.08230    0.43960    0.50170    1.000
    C59      C        0.99370    0.25990    0.47820    1.000
    H34      H        0.95980    0.24270    0.45370    1.000
    C60      C        0.93744    0.56880    0.33770    1.000
    H35      H        0.92230    0.61820    0.30860    1.000
    C61      C        0.09500    0.30950    0.55090    1.000
    H36      H        0.12900    0.32620    0.57530    1.000
    C62      C        0.99164    0.56840    0.36740    1.000
    C63      C        0.84852    0.49000    0.32070    1.000
    C64      C        0.07260    0.21670    0.55870    1.000
    C65      C        0.82010    0.39870    0.31600    1.000
    H37      H        0.83720    0.33890    0.33420    1.000
    C66      C        0.82011    0.57700    0.29230    1.000
    H38      H        0.83710    0.64030    0.29440    1.000
    C67      C        0.02170    0.19170    0.52150    1.000
    H39      H        0.00670    0.12880    0.52610    1.000
    C68      C        0.08660    0.77930    0.30900    1.000
    C69      C        0.07420    0.61290    0.34680    1.000
    H40      H        0.08630    0.54640    0.35870    1.000
    C70      C        0.02609    0.64530    0.35070    1.000
    C71      C        0.10380    0.67940    0.32540    1.000
    H41      H        0.13560    0.65700    0.32210    1.000
    C72      C        0.04040    0.81200    0.31570    1.000
    H42      H        0.02960    0.88000    0.30650    1.000
    O9       O        0.14578    0.17180    0.64210    1.000
    O10      O        0.08154    0.05820    0.61240    1.000
    O11      O        0.15635    0.81410    0.27230    1.000
    O12      O        0.09510    0.93010    0.25680    1.000
    C73      C        0.61550    0.34640    0.27830    1.000
    N7       N        0.24038    0.97980    0.25730    1.000
    C74      C        0.26770    0.89650    0.28490    1.000
    H43      H        0.24960    0.83430    0.28260    1.000
    C75      C        0.26700    0.06830    0.26130    1.000
    H44      H        0.24880    0.12650    0.24230    1.000
    Cd4      Cd       0.65225    0.53247    0.70671    1.000
    N8       N        0.51608    0.99990    0.40860    1.000
    C76      C        0.51555    0.85450    0.47050    1.000
    C77      C        0.48628    0.92920    0.42360    1.000
    C78      C        0.40605    0.99500    0.35170    1.000
    C79      C        0.43144    0.92490    0.39650    1.000
    H45      H        0.41190    0.87540    0.40830    1.000
    C80      C        0.60230    0.64470    0.60760    1.000
    C81      C        0.50970    0.24630    0.33570    1.000
    H46      H        0.47810    0.26960    0.33920    1.000
    C82      C        0.56680    0.87780    0.50690    1.000
    H47      H        0.58230    0.93960    0.50170    1.000
    C83      C        0.49370    0.75990    0.47820    1.000
    H48      H        0.45980    0.74270    0.45370    1.000
    C84      C        0.43744    0.06880    0.33770    1.000
    H49      H        0.42230    0.11820    0.30860    1.000
    C85      C        0.59500    0.80950    0.55090    1.000
    H50      H        0.62900    0.82620    0.57530    1.000
    C86      C        0.49164    0.06840    0.36740    1.000
    C87      C        0.34852    0.99000    0.32070    1.000
    C88      C        0.57260    0.71670    0.55870    1.000
    C89      C        0.32010    0.89870    0.31600    1.000
    H51      H        0.33720    0.83890    0.33420    1.000
    C90      C        0.32011    0.07700    0.29230    1.000
    H52      H        0.33710    0.14030    0.29440    1.000
    C91      C        0.52170    0.69170    0.52150    1.000
    H53      H        0.50670    0.62880    0.52610    1.000
    C92      C        0.58660    0.27930    0.30900    1.000
    C93      C        0.57420    0.11290    0.34680    1.000
    H54      H        0.58630    0.04640    0.35870    1.000
    C94      C        0.52609    0.14530    0.35070    1.000
    C95      C        0.60380    0.17940    0.32540    1.000
    H55      H        0.63560    0.15700    0.32210    1.000
    C96      C        0.54040    0.31200    0.31570    1.000
    H56      H        0.52960    0.38000    0.30650    1.000
    O13      O        0.64578    0.67180    0.64210    1.000
    O14      O        0.58154    0.55820    0.61240    1.000
    O15      O        0.65635    0.31410    0.27230    1.000
    O16      O        0.59510    0.43010    0.25680    1.000
    C97      C        0.88450    0.15360    0.72170    1.000
    N9       N        0.25962    0.52020    0.74270    1.000
    C98      C        0.23230    0.60350    0.71510    1.000
    H57      H        0.25040    0.66570    0.71740    1.000
    C99      C        0.23300    0.43170    0.73870    1.000
    H58      H        0.25120    0.37350    0.75770    1.000
    Cd5      Cd       0.84775    0.96753    0.29329    1.000
    N10      N        0.98392    0.50010    0.59140    1.000
    C100     C        0.98445    0.64550    0.52950    1.000
    C101     C        0.01372    0.57080    0.57640    1.000
    C102     C        0.09395    0.50500    0.64830    1.000
    C103     C        0.06856    0.57510    0.60350    1.000
    H59      H        0.08810    0.62460    0.59170    1.000
    C104     C        0.89770    0.85530    0.39240    1.000
    C105     C        0.99030    0.25370    0.66430    1.000
    H60      H        0.02190    0.23040    0.66080    1.000
    C106     C        0.93320    0.62220    0.49310    1.000
    H61      H        0.91770    0.56040    0.49830    1.000
    C107     C        0.00630    0.74010    0.52180    1.000
    H62      H        0.04020    0.75730    0.54630    1.000
    C108     C        0.06256    0.43120    0.66230    1.000
    H63      H        0.07770    0.38180    0.69140    1.000
    C109     C        0.90500    0.69050    0.44910    1.000
    H64      H        0.87100    0.67380    0.42470    1.000
    C110     C        0.00836    0.43160    0.63260    1.000
    C111     C        0.15148    0.51000    0.67930    1.000
    C112     C        0.92740    0.78330    0.44130    1.000
    C113     C        0.17990    0.60130    0.68400    1.000
    H65      H        0.16280    0.66110    0.66580    1.000
    C114     C        0.17989    0.42300    0.70770    1.000
    H66      H        0.16290    0.35970    0.70560    1.000
    C115     C        0.97830    0.80830    0.47850    1.000
    H67      H        0.99330    0.87120    0.47390    1.000
    C116     C        0.91340    0.22070    0.69100    1.000
    C117     C        0.92580    0.38710    0.65320    1.000
    H68      H        0.91370    0.45360    0.64130    1.000
    C118     C        0.97391    0.35470    0.64930    1.000
    C119     C        0.89620    0.32060    0.67460    1.000
    H69      H        0.86440    0.34300    0.67790    1.000
    C120     C        0.95960    0.18800    0.68430    1.000
    H70      H        0.97040    0.12000    0.69350    1.000
    O17      O        0.85422    0.82820    0.35790    1.000
    O18      O        0.91846    0.94180    0.38760    1.000
    O19      O        0.84365    0.18590    0.72770    1.000
    O20      O        0.90490    0.06990    0.74320    1.000
    C121     C        0.38450    0.65360    0.72170    1.000
    N11      N        0.75962    0.02020    0.74270    1.000
    C122     C        0.73230    0.10350    0.71510    1.000
    H71      H        0.75040    0.16570    0.71740    1.000
    C123     C        0.73300    0.93170    0.73870    1.000
    H72      H        0.75120    0.87350    0.75770    1.000
    Cd6      Cd       0.34775    0.46753    0.29329    1.000
    N12      N        0.48392    0.00010    0.59140    1.000
    C124     C        0.48445    0.14550    0.52950    1.000
    C125     C        0.51372    0.07080    0.57640    1.000
    C126     C        0.59395    0.00500    0.64830    1.000
    C127     C        0.56856    0.07510    0.60350    1.000
    H73      H        0.58810    0.12460    0.59170    1.000
    C128     C        0.39770    0.35530    0.39240    1.000
    C129     C        0.49030    0.75370    0.66430    1.000
    H74      H        0.52190    0.73040    0.66080    1.000
    C130     C        0.43320    0.12220    0.49310    1.000
    H75      H        0.41770    0.06040    0.49830    1.000
    C131     C        0.50630    0.24010    0.52180    1.000
    H76      H        0.54020    0.25730    0.54630    1.000
    C132     C        0.56256    0.93120    0.66230    1.000
    H77      H        0.57770    0.88180    0.69140    1.000
    C133     C        0.40500    0.19050    0.44910    1.000
    H78      H        0.37100    0.17380    0.42470    1.000
    C134     C        0.50836    0.93160    0.63260    1.000
    C135     C        0.65148    0.01000    0.67930    1.000
    C136     C        0.42740    0.28330    0.44130    1.000
    C137     C        0.67990    0.10130    0.68400    1.000
    H79      H        0.66280    0.16110    0.66580    1.000
    C138     C        0.67989    0.92300    0.70770    1.000
    H80      H        0.66290    0.85970    0.70560    1.000
    C139     C        0.47830    0.30830    0.47850    1.000
    H81      H        0.49330    0.37120    0.47390    1.000
    C140     C        0.41340    0.72070    0.69100    1.000
    C141     C        0.42580    0.88710    0.65320    1.000
    H82      H        0.41370    0.95360    0.64130    1.000
    C142     C        0.47391    0.85470    0.64930    1.000
    C143     C        0.39620    0.82060    0.67460    1.000
    H83      H        0.36440    0.84300    0.67790    1.000
    C144     C        0.45960    0.68800    0.68430    1.000
    H84      H        0.47040    0.62000    0.69350    1.000
    O21      O        0.35422    0.32820    0.35790    1.000
    O22      O        0.41846    0.44180    0.38760    1.000
    O23      O        0.34365    0.68590    0.72770    1.000
    O24      O        0.40490    0.56990    0.74320    1.000
    C145     C        0.88450    0.84640    0.22170    1.000
    N13      N        0.25962    0.47980    0.24270    1.000
    C146     C        0.23230    0.39650    0.21510    1.000
    H85      H        0.25040    0.33430    0.21740    1.000
    C147     C        0.23300    0.56830    0.23870    1.000
    H86      H        0.25120    0.62650    0.25770    1.000
    Cd7      Cd       0.84775    0.03247    0.79329    1.000
    N14      N        0.98392    0.49990    0.09140    1.000
    C148     C        0.98445    0.35450    0.02950    1.000
    C149     C        0.01372    0.42920    0.07640    1.000
    C150     C        0.09395    0.49500    0.14830    1.000
    C151     C        0.06856    0.42490    0.10350    1.000
    H87      H        0.08810    0.37540    0.09170    1.000
    C152     C        0.89770    0.14470    0.89240    1.000
    C153     C        0.99030    0.74630    0.16430    1.000
    H88      H        0.02190    0.76960    0.16080    1.000
    C154     C        0.93320    0.37780    0.99310    1.000
    H89      H        0.91770    0.43960    0.99830    1.000
    C155     C        0.00630    0.25990    0.02180    1.000
    H90      H        0.04020    0.24270    0.04630    1.000
    C156     C        0.06256    0.56880    0.16230    1.000
    H91      H        0.07770    0.61820    0.19140    1.000
    C157     C        0.90500    0.30950    0.94910    1.000
    H92      H        0.87100    0.32620    0.92470    1.000
    C158     C        0.00836    0.56840    0.13260    1.000
    C159     C        0.15148    0.49000    0.17930    1.000
    C160     C        0.92740    0.21670    0.94130    1.000
    C161     C        0.17990    0.39870    0.18400    1.000
    H93      H        0.16280    0.33890    0.16580    1.000
    C162     C        0.17989    0.57700    0.20770    1.000
    H94      H        0.16290    0.64030    0.20560    1.000
    C163     C        0.97830    0.19170    0.97850    1.000
    H95      H        0.99330    0.12880    0.97390    1.000
    C164     C        0.91340    0.77930    0.19100    1.000
    C165     C        0.92580    0.61290    0.15320    1.000
    H96      H        0.91370    0.54640    0.14130    1.000
    C166     C        0.97391    0.64530    0.14930    1.000
    C167     C        0.89620    0.67940    0.17460    1.000
    H97      H        0.86440    0.65700    0.17790    1.000
    C168     C        0.95960    0.81200    0.18430    1.000
    H98      H        0.97040    0.88000    0.19350    1.000
    O25      O        0.85422    0.17180    0.85790    1.000
    O26      O        0.91846    0.05820    0.88760    1.000
    O27      O        0.84365    0.81410    0.22770    1.000
    O28      O        0.90490    0.93010    0.24320    1.000
    C169     C        0.38450    0.34640    0.22170    1.000
    N15      N        0.75962    0.97980    0.24270    1.000
    C170     C        0.73230    0.89650    0.21510    1.000
    H99      H        0.75040    0.83430    0.21740    1.000
    C171     C        0.73300    0.06830    0.23870    1.000
    H100     H        0.75120    0.12650    0.25770    1.000
    Cd8      Cd       0.34775    0.53247    0.79329    1.000
    N16      N        0.48392    0.99990    0.09140    1.000
    C172     C        0.48445    0.85450    0.02950    1.000
    C173     C        0.51372    0.92920    0.07640    1.000
    C174     C        0.59395    0.99500    0.14830    1.000
    C175     C        0.56856    0.92490    0.10350    1.000
    H101     H        0.58810    0.87540    0.09170    1.000
    C176     C        0.39770    0.64470    0.89240    1.000
    C177     C        0.49030    0.24630    0.16430    1.000
    H102     H        0.52190    0.26960    0.16080    1.000
    C178     C        0.43320    0.87780    0.99310    1.000
    H103     H        0.41770    0.93960    0.99830    1.000
    C179     C        0.50630    0.75990    0.02180    1.000
    H104     H        0.54020    0.74270    0.04630    1.000
    C180     C        0.56256    0.06880    0.16230    1.000
    H105     H        0.57770    0.11820    0.19140    1.000
    C181     C        0.40500    0.80950    0.94910    1.000
    H106     H        0.37100    0.82620    0.92470    1.000
    C182     C        0.50836    0.06840    0.13260    1.000
    C183     C        0.65148    0.99000    0.17930    1.000
    C184     C        0.42740    0.71670    0.94130    1.000
    C185     C        0.67990    0.89870    0.18400    1.000
    H107     H        0.66280    0.83890    0.16580    1.000
    C186     C        0.67989    0.07700    0.20770    1.000
    H108     H        0.66290    0.14030    0.20560    1.000
    C187     C        0.47830    0.69170    0.97850    1.000
    H109     H        0.49330    0.62880    0.97390    1.000
    C188     C        0.41340    0.27930    0.19100    1.000
    C189     C        0.42580    0.11290    0.15320    1.000
    H110     H        0.41370    0.04640    0.14130    1.000
    C190     C        0.47391    0.14530    0.14930    1.000
    C191     C        0.39620    0.17940    0.17460    1.000
    H111     H        0.36440    0.15700    0.17790    1.000
    C192     C        0.45960    0.31200    0.18430    1.000
    H112     H        0.47040    0.38000    0.19350    1.000
    O29      O        0.35422    0.67180    0.85790    1.000
    O30      O        0.41846    0.55820    0.88760    1.000
    O31      O        0.34365    0.31410    0.22770    1.000
    O32      O        0.40490    0.43010    0.24320    1.000
