# CIF file generated by openbabel 3.1.0, see https://openbabel.org
data_I
_chemical_name_common 'image0'
_cell_length_a 46.009
_cell_length_b 9.7333
_cell_length_c 20.7159
_cell_angle_alpha 90
_cell_angle_beta 105.77
_cell_angle_gamma 90
_space_group_name_H-M_alt 'P 1'
_space_group_name_Hall 'P 1'
loop_
    _symmetry_equiv_pos_as_xyz
    x,y,z
loop_
    _atom_site_label
    _atom_site_type_symbol
    _atom_site_fract_x
    _atom_site_fract_y
    _atom_site_fract_z
    _atom_site_occupancy
    Gd1      Gd       0.49661    0.75163    0.48342    1.000
    Cu1      Cu       0.21630    0.40674    0.36270    1.000
    Cu2      Cu       0.26634    0.33117    0.46705    1.000
    Cu3      Cu       0.25300    0.57667    0.33148    1.000
    I1       I        0.21658    0.42144    0.49133    1.000
    I2       I        0.26768    0.32180    0.33751    1.000
    I3       I        0.19896    0.65422    0.31126    1.000
    O1       O        0.45644    0.65510    0.52980    1.000
    O2       O        0.47824    0.84570    0.57730    1.000
    O3       O        0.45110    0.88320    0.43680    1.000
    O4       O        0.46650    0.09190    0.47220    1.000
    O5       O        0.52149    0.59960    0.56510    1.000
    O6       O        0.53161    0.38740    0.60280    1.000
    N1       N        0.30014    0.46300    0.51050    1.000
    N2       N        0.28736    0.70580    0.34480    1.000
    N3       N        0.68378    0.22980    0.81860    1.000
    C1       C        0.32917    0.42290    0.52930    1.000
    H1       H        0.33330    0.32940    0.52910    1.000
    C2       C        0.35340    0.51300    0.54890    1.000
    H2       H        0.37300    0.47890    0.56220    1.000
    C3       C        0.34850    0.65120    0.54880    1.000
    C4       C        0.31851    0.69570    0.53080    1.000
    H3       H        0.31390    0.78860    0.53150    1.000
    C5       C        0.29601    0.59930    0.51200    1.000
    H4       H        0.27620    0.63120    0.49930    1.000
    C6       C        0.37363    0.75180    0.56610    1.000
    C7       C        0.40178    0.71640    0.55820    1.000
    H5       H        0.40420    0.63090    0.54030    1.000
    C8       C        0.42651    0.80490    0.57630    1.000
    C9       C        0.42271    0.93530    0.60160    1.000
    H6       H        0.43880    0.99640    0.61340    1.000
    C10      C        0.39448    0.97250    0.60880    1.000
    H7       H        0.39180    0.05890    0.62540    1.000
    C11      C        0.37049    0.88160    0.59150    1.000
    H8       H        0.35190    0.90790    0.59690    1.000
    C12      C        0.45563    0.76530    0.56120    1.000
    C13      C        0.31645    0.66580    0.36260    1.000
    H9       H        0.32080    0.57230    0.36460    1.000
    C14      C        0.33988    0.75740    0.37760    1.000
    H10      H        0.35960    0.72430    0.38970    1.000
    C15      C        0.33519    0.89600    0.37540    1.000
    C16      C        0.30525    0.93800    0.35620    1.000
    H11      H        0.30060    0.03110    0.35280    1.000
    C17      C        0.28263    0.84220    0.34230    1.000
    H12      H        0.26280    0.87330    0.33030    1.000
    C18      C        0.36037    0.99930    0.39570    1.000
    C19      C        0.39052    0.96070    0.40960    1.000
    H13      H        0.39520    0.86910    0.40440    1.000
    C20      C        0.41347    0.05250    0.43070    1.000
    C21      C        0.40691    0.19050    0.43740    1.000
    H14      H        0.42240    0.25420    0.45160    1.000
    C22      C        0.37747    0.23100    0.42280    1.000
    H15      H        0.37300    0.32320    0.42700    1.000
    C23      C        0.35415    0.13820    0.40180    1.000
    H16      H        0.33420    0.16830    0.39180    1.000
    C24      C        0.44576    0.00750    0.44730    1.000
    C25      C        0.65498    0.19120    0.79660    1.000
    H17      H        0.65060    0.09850    0.79930    1.000
    C26      C        0.63126    0.27900    0.77020    1.000
    H18      H        0.61170    0.24470    0.75520    1.000
    C27      C        0.63650    0.41740    0.76590    1.000
    C28      C        0.66646    0.45960    0.78800    1.000
    H19      H        0.67140    0.55160    0.78480    1.000
    C29      C        0.68886    0.36550    0.81430    1.000
    H20      H        0.70860    0.39720    0.83000    1.000
    C30      C        0.61172    0.51400    0.73770    1.000
    C31      C        0.58622    0.47300    0.68850    1.000
    H21      H        0.58490    0.38260    0.67340    1.000
    C32      C        0.56284    0.56200    0.66150    1.000
    C33      C        0.56455    0.69570    0.68440    1.000
    H22      H        0.54890    0.75690    0.66640    1.000
    C34      C        0.58940    0.73860    0.73400    1.000
    H23      H        0.59010    0.82790    0.75030    1.000
    C35      C        0.61322    0.65030    0.75990    1.000
    H24      H        0.63020    0.68140    0.79200    1.000
    C36      C        0.53672    0.51390    0.60590    1.000
    Gd2      Gd       0.99661    0.25163    0.48342    1.000
    Cu4      Cu       0.71630    0.90674    0.36270    1.000
    Cu5      Cu       0.76634    0.83117    0.46705    1.000
    Cu6      Cu       0.75300    0.07667    0.33148    1.000
    I4       I        0.71658    0.92144    0.49133    1.000
    I5       I        0.76768    0.82180    0.33751    1.000
    I6       I        0.69896    0.15422    0.31126    1.000
    O7       O        0.95644    0.15510    0.52980    1.000
    O8       O        0.97824    0.34570    0.57730    1.000
    O9       O        0.95110    0.38320    0.43680    1.000
    O10      O        0.96650    0.59190    0.47220    1.000
    O11      O        0.02149    0.09960    0.56510    1.000
    O12      O        0.03161    0.88740    0.60280    1.000
    N4       N        0.80014    0.96300    0.51050    1.000
    N5       N        0.78736    0.20580    0.34480    1.000
    N6       N        0.18378    0.72980    0.81860    1.000
    C37      C        0.82917    0.92290    0.52930    1.000
    H25      H        0.83330    0.82940    0.52910    1.000
    C38      C        0.85340    0.01300    0.54890    1.000
    H26      H        0.87300    0.97890    0.56220    1.000
    C39      C        0.84850    0.15120    0.54880    1.000
    C40      C        0.81851    0.19570    0.53080    1.000
    H27      H        0.81390    0.28860    0.53150    1.000
    C41      C        0.79601    0.09930    0.51200    1.000
    H28      H        0.77620    0.13120    0.49930    1.000
    C42      C        0.87363    0.25180    0.56610    1.000
    C43      C        0.90178    0.21640    0.55820    1.000
    H29      H        0.90420    0.13090    0.54030    1.000
    C44      C        0.92651    0.30490    0.57630    1.000
    C45      C        0.92271    0.43530    0.60160    1.000
    H30      H        0.93880    0.49640    0.61340    1.000
    C46      C        0.89448    0.47250    0.60880    1.000
    H31      H        0.89180    0.55890    0.62540    1.000
    C47      C        0.87049    0.38160    0.59150    1.000
    H32      H        0.85190    0.40790    0.59690    1.000
    C48      C        0.95563    0.26530    0.56120    1.000
    C49      C        0.81645    0.16580    0.36260    1.000
    H33      H        0.82080    0.07230    0.36460    1.000
    C50      C        0.83988    0.25740    0.37760    1.000
    H34      H        0.85960    0.22430    0.38970    1.000
    C51      C        0.83519    0.39600    0.37540    1.000
    C52      C        0.80525    0.43800    0.35620    1.000
    H35      H        0.80060    0.53110    0.35280    1.000
    C53      C        0.78263    0.34220    0.34230    1.000
    H36      H        0.76280    0.37330    0.33030    1.000
    C54      C        0.86037    0.49930    0.39570    1.000
    C55      C        0.89052    0.46070    0.40960    1.000
    H37      H        0.89520    0.36910    0.40440    1.000
    C56      C        0.91347    0.55250    0.43070    1.000
    C57      C        0.90691    0.69050    0.43740    1.000
    H38      H        0.92240    0.75420    0.45160    1.000
    C58      C        0.87747    0.73100    0.42280    1.000
    H39      H        0.87300    0.82320    0.42700    1.000
    C59      C        0.85415    0.63820    0.40180    1.000
    H40      H        0.83420    0.66830    0.39180    1.000
    C60      C        0.94576    0.50750    0.44730    1.000
    C61      C        0.15498    0.69120    0.79660    1.000
    H41      H        0.15060    0.59850    0.79930    1.000
    C62      C        0.13126    0.77900    0.77020    1.000
    H42      H        0.11170    0.74470    0.75520    1.000
    C63      C        0.13650    0.91740    0.76590    1.000
    C64      C        0.16646    0.95960    0.78800    1.000
    H43      H        0.17140    0.05160    0.78480    1.000
    C65      C        0.18886    0.86550    0.81430    1.000
    H44      H        0.20860    0.89720    0.83000    1.000
    C66      C        0.11172    0.01400    0.73770    1.000
    C67      C        0.08622    0.97300    0.68850    1.000
    H45      H        0.08490    0.88260    0.67340    1.000
    C68      C        0.06284    0.06200    0.66150    1.000
    C69      C        0.06455    0.19570    0.68440    1.000
    H46      H        0.04890    0.25690    0.66640    1.000
    C70      C        0.08940    0.23860    0.73400    1.000
    H47      H        0.09010    0.32790    0.75030    1.000
    C71      C        0.11322    0.15030    0.75990    1.000
    H48      H        0.13020    0.18140    0.79200    1.000
    C72      C        0.03672    0.01390    0.60590    1.000
    Gd3      Gd       0.50339    0.75163    0.01658    1.000
    Cu7      Cu       0.78370    0.40674    0.13730    1.000
    Cu8      Cu       0.73366    0.33117    0.03295    1.000
    Cu9      Cu       0.74700    0.57667    0.16852    1.000
    I7       I        0.78342    0.42144    0.00867    1.000
    I8       I        0.73232    0.32180    0.16249    1.000
    I9       I        0.80104    0.65422    0.18874    1.000
    O13      O        0.54356    0.65510    0.97020    1.000
    O14      O        0.52176    0.84570    0.92270    1.000
    O15      O        0.54890    0.88320    0.06320    1.000
    O16      O        0.53350    0.09190    0.02780    1.000
    O17      O        0.47851    0.59960    0.93490    1.000
    O18      O        0.46839    0.38740    0.89720    1.000
    N7       N        0.69986    0.46300    0.98950    1.000
    N8       N        0.71264    0.70580    0.15520    1.000
    N9       N        0.31622    0.22980    0.68140    1.000
    C73      C        0.67083    0.42290    0.97070    1.000
    H49      H        0.66670    0.32940    0.97090    1.000
    C74      C        0.64660    0.51300    0.95110    1.000
    H50      H        0.62700    0.47890    0.93780    1.000
    C75      C        0.65150    0.65120    0.95120    1.000
    C76      C        0.68149    0.69570    0.96920    1.000
    H51      H        0.68610    0.78860    0.96850    1.000
    C77      C        0.70399    0.59930    0.98800    1.000
    H52      H        0.72380    0.63120    0.00070    1.000
    C78      C        0.62637    0.75180    0.93390    1.000
    C79      C        0.59822    0.71640    0.94180    1.000
    H53      H        0.59580    0.63090    0.95970    1.000
    C80      C        0.57349    0.80490    0.92370    1.000
    C81      C        0.57729    0.93530    0.89840    1.000
    H54      H        0.56120    0.99640    0.88660    1.000
    C82      C        0.60552    0.97250    0.89120    1.000
    H55      H        0.60820    0.05890    0.87460    1.000
    C83      C        0.62951    0.88160    0.90850    1.000
    H56      H        0.64810    0.90790    0.90310    1.000
    C84      C        0.54437    0.76530    0.93880    1.000
    C85      C        0.68355    0.66580    0.13740    1.000
    H57      H        0.67920    0.57230    0.13540    1.000
    C86      C        0.66012    0.75740    0.12240    1.000
    H58      H        0.64040    0.72430    0.11030    1.000
    C87      C        0.66481    0.89600    0.12460    1.000
    C88      C        0.69475    0.93800    0.14380    1.000
    H59      H        0.69940    0.03110    0.14720    1.000
    C89      C        0.71737    0.84220    0.15770    1.000
    H60      H        0.73720    0.87330    0.16970    1.000
    C90      C        0.63963    0.99930    0.10430    1.000
    C91      C        0.60948    0.96070    0.09040    1.000
    H61      H        0.60480    0.86910    0.09560    1.000
    C92      C        0.58653    0.05250    0.06930    1.000
    C93      C        0.59309    0.19050    0.06260    1.000
    H62      H        0.57760    0.25420    0.04840    1.000
    C94      C        0.62253    0.23100    0.07720    1.000
    H63      H        0.62700    0.32320    0.07300    1.000
    C95      C        0.64585    0.13820    0.09820    1.000
    H64      H        0.66580    0.16830    0.10820    1.000
    C96      C        0.55424    0.00750    0.05270    1.000
    C97      C        0.34502    0.19120    0.70340    1.000
    H65      H        0.34940    0.09850    0.70070    1.000
    C98      C        0.36874    0.27900    0.72980    1.000
    H66      H        0.38830    0.24470    0.74480    1.000
    C99      C        0.36350    0.41740    0.73410    1.000
    C100     C        0.33354    0.45960    0.71200    1.000
    H67      H        0.32860    0.55160    0.71520    1.000
    C101     C        0.31114    0.36550    0.68570    1.000
    H68      H        0.29140    0.39720    0.67000    1.000
    C102     C        0.38828    0.51400    0.76230    1.000
    C103     C        0.41378    0.47300    0.81150    1.000
    H69      H        0.41510    0.38260    0.82660    1.000
    C104     C        0.43716    0.56200    0.83850    1.000
    C105     C        0.43545    0.69570    0.81560    1.000
    H70      H        0.45110    0.75690    0.83360    1.000
    C106     C        0.41060    0.73860    0.76600    1.000
    H71      H        0.40990    0.82790    0.74970    1.000
    C107     C        0.38678    0.65030    0.74010    1.000
    H72      H        0.36980    0.68140    0.70800    1.000
    C108     C        0.46328    0.51390    0.89410    1.000
    Gd4      Gd       0.00339    0.25163    0.01658    1.000
    Cu10     Cu       0.28370    0.90674    0.13730    1.000
    Cu11     Cu       0.23366    0.83117    0.03295    1.000
    Cu12     Cu       0.24700    0.07667    0.16852    1.000
    I10      I        0.28342    0.92144    0.00867    1.000
    I11      I        0.23232    0.82180    0.16249    1.000
    I12      I        0.30104    0.15422    0.18874    1.000
    O19      O        0.04356    0.15510    0.97020    1.000
    O20      O        0.02176    0.34570    0.92270    1.000
    O21      O        0.04890    0.38320    0.06320    1.000
    O22      O        0.03350    0.59190    0.02780    1.000
    O23      O        0.97851    0.09960    0.93490    1.000
    O24      O        0.96839    0.88740    0.89720    1.000
    N10      N        0.19986    0.96300    0.98950    1.000
    N11      N        0.21264    0.20580    0.15520    1.000
    N12      N        0.81622    0.72980    0.68140    1.000
    C109     C        0.17083    0.92290    0.97070    1.000
    H73      H        0.16670    0.82940    0.97090    1.000
    C110     C        0.14660    0.01300    0.95110    1.000
    H74      H        0.12700    0.97890    0.93780    1.000
    C111     C        0.15150    0.15120    0.95120    1.000
    C112     C        0.18149    0.19570    0.96920    1.000
    H75      H        0.18610    0.28860    0.96850    1.000
    C113     C        0.20399    0.09930    0.98800    1.000
    H76      H        0.22380    0.13120    0.00070    1.000
    C114     C        0.12637    0.25180    0.93390    1.000
    C115     C        0.09822    0.21640    0.94180    1.000
    H77      H        0.09580    0.13090    0.95970    1.000
    C116     C        0.07349    0.30490    0.92370    1.000
    C117     C        0.07729    0.43530    0.89840    1.000
    H78      H        0.06120    0.49640    0.88660    1.000
    C118     C        0.10552    0.47250    0.89120    1.000
    H79      H        0.10820    0.55890    0.87460    1.000
    C119     C        0.12951    0.38160    0.90850    1.000
    H80      H        0.14810    0.40790    0.90310    1.000
    C120     C        0.04437    0.26530    0.93880    1.000
    C121     C        0.18355    0.16580    0.13740    1.000
    H81      H        0.17920    0.07230    0.13540    1.000
    C122     C        0.16012    0.25740    0.12240    1.000
    H82      H        0.14040    0.22430    0.11030    1.000
    C123     C        0.16481    0.39600    0.12460    1.000
    C124     C        0.19475    0.43800    0.14380    1.000
    H83      H        0.19940    0.53110    0.14720    1.000
    C125     C        0.21737    0.34220    0.15770    1.000
    H84      H        0.23720    0.37330    0.16970    1.000
    C126     C        0.13963    0.49930    0.10430    1.000
    C127     C        0.10948    0.46070    0.09040    1.000
    H85      H        0.10480    0.36910    0.09560    1.000
    C128     C        0.08653    0.55250    0.06930    1.000
    C129     C        0.09309    0.69050    0.06260    1.000
    H86      H        0.07760    0.75420    0.04840    1.000
    C130     C        0.12253    0.73100    0.07720    1.000
    H87      H        0.12700    0.82320    0.07300    1.000
    C131     C        0.14585    0.63820    0.09820    1.000
    H88      H        0.16580    0.66830    0.10820    1.000
    C132     C        0.05424    0.50750    0.05270    1.000
    C133     C        0.84502    0.69120    0.70340    1.000
    H89      H        0.84940    0.59850    0.70070    1.000
    C134     C        0.86874    0.77900    0.72980    1.000
    H90      H        0.88830    0.74470    0.74480    1.000
    C135     C        0.86350    0.91740    0.73410    1.000
    C136     C        0.83354    0.95960    0.71200    1.000
    H91      H        0.82860    0.05160    0.71520    1.000
    C137     C        0.81114    0.86550    0.68570    1.000
    H92      H        0.79140    0.89720    0.67000    1.000
    C138     C        0.88828    0.01400    0.76230    1.000
    C139     C        0.91378    0.97300    0.81150    1.000
    H93      H        0.91510    0.88260    0.82660    1.000
    C140     C        0.93716    0.06200    0.83850    1.000
    C141     C        0.93545    0.19570    0.81560    1.000
    H94      H        0.95110    0.25690    0.83360    1.000
    C142     C        0.91060    0.23860    0.76600    1.000
    H95      H        0.90990    0.32790    0.74970    1.000
    C143     C        0.88678    0.15030    0.74010    1.000
    H96      H        0.86980    0.18140    0.70800    1.000
    C144     C        0.96328    0.01390    0.89410    1.000
    Gd5      Gd       0.50339    0.24837    0.51658    1.000
    Cu13     Cu       0.78370    0.59326    0.63730    1.000
    Cu14     Cu       0.73366    0.66883    0.53295    1.000
    Cu15     Cu       0.74700    0.42333    0.66852    1.000
    I13      I        0.78342    0.57856    0.50867    1.000
    I14      I        0.73232    0.67820    0.66249    1.000
    I15      I        0.80104    0.34578    0.68874    1.000
    O25      O        0.54356    0.34490    0.47020    1.000
    O26      O        0.52176    0.15430    0.42270    1.000
    O27      O        0.54890    0.11680    0.56320    1.000
    O28      O        0.53350    0.90810    0.52780    1.000
    O29      O        0.47851    0.40040    0.43490    1.000
    O30      O        0.46839    0.61260    0.39720    1.000
    N13      N        0.69986    0.53700    0.48950    1.000
    N14      N        0.71264    0.29420    0.65520    1.000
    N15      N        0.31622    0.77020    0.18140    1.000
    C145     C        0.67083    0.57710    0.47070    1.000
    H97      H        0.66670    0.67060    0.47090    1.000
    C146     C        0.64660    0.48700    0.45110    1.000
    H98      H        0.62700    0.52110    0.43780    1.000
    C147     C        0.65150    0.34880    0.45120    1.000
    C148     C        0.68149    0.30430    0.46920    1.000
    H99      H        0.68610    0.21140    0.46850    1.000
    C149     C        0.70399    0.40070    0.48800    1.000
    H100     H        0.72380    0.36880    0.50070    1.000
    C150     C        0.62637    0.24820    0.43390    1.000
    C151     C        0.59822    0.28360    0.44180    1.000
    H101     H        0.59580    0.36910    0.45970    1.000
    C152     C        0.57349    0.19510    0.42370    1.000
    C153     C        0.57729    0.06470    0.39840    1.000
    H102     H        0.56120    0.00360    0.38660    1.000
    C154     C        0.60552    0.02750    0.39120    1.000
    H103     H        0.60820    0.94110    0.37460    1.000
    C155     C        0.62951    0.11840    0.40850    1.000
    H104     H        0.64810    0.09210    0.40310    1.000
    C156     C        0.54437    0.23470    0.43880    1.000
    C157     C        0.68355    0.33420    0.63740    1.000
    H105     H        0.67920    0.42770    0.63540    1.000
    C158     C        0.66012    0.24260    0.62240    1.000
    H106     H        0.64040    0.27570    0.61030    1.000
    C159     C        0.66481    0.10400    0.62460    1.000
    C160     C        0.69475    0.06200    0.64380    1.000
    H107     H        0.69940    0.96890    0.64720    1.000
    C161     C        0.71737    0.15780    0.65770    1.000
    H108     H        0.73720    0.12670    0.66970    1.000
    C162     C        0.63963    0.00070    0.60430    1.000
    C163     C        0.60948    0.03930    0.59040    1.000
    H109     H        0.60480    0.13090    0.59560    1.000
    C164     C        0.58653    0.94750    0.56930    1.000
    C165     C        0.59309    0.80950    0.56260    1.000
    H110     H        0.57760    0.74580    0.54840    1.000
    C166     C        0.62253    0.76900    0.57720    1.000
    H111     H        0.62700    0.67680    0.57300    1.000
    C167     C        0.64585    0.86180    0.59820    1.000
    H112     H        0.66580    0.83170    0.60820    1.000
    C168     C        0.55424    0.99250    0.55270    1.000
    C169     C        0.34502    0.80880    0.20340    1.000
    H113     H        0.34940    0.90150    0.20070    1.000
    C170     C        0.36874    0.72100    0.22980    1.000
    H114     H        0.38830    0.75530    0.24480    1.000
    C171     C        0.36350    0.58260    0.23410    1.000
    C172     C        0.33354    0.54040    0.21200    1.000
    H115     H        0.32860    0.44840    0.21520    1.000
    C173     C        0.31114    0.63450    0.18570    1.000
    H116     H        0.29140    0.60280    0.17000    1.000
    C174     C        0.38828    0.48600    0.26230    1.000
    C175     C        0.41378    0.52700    0.31150    1.000
    H117     H        0.41510    0.61740    0.32660    1.000
    C176     C        0.43716    0.43800    0.33850    1.000
    C177     C        0.43545    0.30430    0.31560    1.000
    H118     H        0.45110    0.24310    0.33360    1.000
    C178     C        0.41060    0.26140    0.26600    1.000
    H119     H        0.40990    0.17210    0.24970    1.000
    C179     C        0.38678    0.34970    0.24010    1.000
    H120     H        0.36980    0.31860    0.20800    1.000
    C180     C        0.46328    0.48610    0.39410    1.000
    Gd6      Gd       0.00339    0.74837    0.51658    1.000
    Cu16     Cu       0.28370    0.09326    0.63730    1.000
    Cu17     Cu       0.23366    0.16883    0.53295    1.000
    Cu18     Cu       0.24700    0.92333    0.66852    1.000
    I16      I        0.28342    0.07856    0.50867    1.000
    I17      I        0.23232    0.17820    0.66249    1.000
    I18      I        0.30104    0.84578    0.68874    1.000
    O31      O        0.04356    0.84490    0.47020    1.000
    O32      O        0.02176    0.65430    0.42270    1.000
    O33      O        0.04890    0.61680    0.56320    1.000
    O34      O        0.03350    0.40810    0.52780    1.000
    O35      O        0.97851    0.90040    0.43490    1.000
    O36      O        0.96839    0.11260    0.39720    1.000
    N16      N        0.19986    0.03700    0.48950    1.000
    N17      N        0.21264    0.79420    0.65520    1.000
    N18      N        0.81622    0.27020    0.18140    1.000
    C181     C        0.17083    0.07710    0.47070    1.000
    H121     H        0.16670    0.17060    0.47090    1.000
    C182     C        0.14660    0.98700    0.45110    1.000
    H122     H        0.12700    0.02110    0.43780    1.000
    C183     C        0.15150    0.84880    0.45120    1.000
    C184     C        0.18149    0.80430    0.46920    1.000
    H123     H        0.18610    0.71140    0.46850    1.000
    C185     C        0.20399    0.90070    0.48800    1.000
    H124     H        0.22380    0.86880    0.50070    1.000
    C186     C        0.12637    0.74820    0.43390    1.000
    C187     C        0.09822    0.78360    0.44180    1.000
    H125     H        0.09580    0.86910    0.45970    1.000
    C188     C        0.07349    0.69510    0.42370    1.000
    C189     C        0.07729    0.56470    0.39840    1.000
    H126     H        0.06120    0.50360    0.38660    1.000
    C190     C        0.10552    0.52750    0.39120    1.000
    H127     H        0.10820    0.44110    0.37460    1.000
    C191     C        0.12951    0.61840    0.40850    1.000
    H128     H        0.14810    0.59210    0.40310    1.000
    C192     C        0.04437    0.73470    0.43880    1.000
    C193     C        0.18355    0.83420    0.63740    1.000
    H129     H        0.17920    0.92770    0.63540    1.000
    C194     C        0.16012    0.74260    0.62240    1.000
    H130     H        0.14040    0.77570    0.61030    1.000
    C195     C        0.16481    0.60400    0.62460    1.000
    C196     C        0.19475    0.56200    0.64380    1.000
    H131     H        0.19940    0.46890    0.64720    1.000
    C197     C        0.21737    0.65780    0.65770    1.000
    H132     H        0.23720    0.62670    0.66970    1.000
    C198     C        0.13963    0.50070    0.60430    1.000
    C199     C        0.10948    0.53930    0.59040    1.000
    H133     H        0.10480    0.63090    0.59560    1.000
    C200     C        0.08653    0.44750    0.56930    1.000
    C201     C        0.09309    0.30950    0.56260    1.000
    H134     H        0.07760    0.24580    0.54840    1.000
    C202     C        0.12253    0.26900    0.57720    1.000
    H135     H        0.12700    0.17680    0.57300    1.000
    C203     C        0.14585    0.36180    0.59820    1.000
    H136     H        0.16580    0.33170    0.60820    1.000
    C204     C        0.05424    0.49250    0.55270    1.000
    C205     C        0.84502    0.30880    0.20340    1.000
    H137     H        0.84940    0.40150    0.20070    1.000
    C206     C        0.86874    0.22100    0.22980    1.000
    H138     H        0.88830    0.25530    0.24480    1.000
    C207     C        0.86350    0.08260    0.23410    1.000
    C208     C        0.83354    0.04040    0.21200    1.000
    H139     H        0.82860    0.94840    0.21520    1.000
    C209     C        0.81114    0.13450    0.18570    1.000
    H140     H        0.79140    0.10280    0.17000    1.000
    C210     C        0.88828    0.98600    0.26230    1.000
    C211     C        0.91378    0.02700    0.31150    1.000
    H141     H        0.91510    0.11740    0.32660    1.000
    C212     C        0.93716    0.93800    0.33850    1.000
    C213     C        0.93545    0.80430    0.31560    1.000
    H142     H        0.95110    0.74310    0.33360    1.000
    C214     C        0.91060    0.76140    0.26600    1.000
    H143     H        0.90990    0.67210    0.24970    1.000
    C215     C        0.88678    0.84970    0.24010    1.000
    H144     H        0.86980    0.81860    0.20800    1.000
    C216     C        0.96328    0.98610    0.39410    1.000
    Gd7      Gd       0.49661    0.24837    0.98342    1.000
    Cu19     Cu       0.21630    0.59326    0.86270    1.000
    Cu20     Cu       0.26634    0.66883    0.96705    1.000
    Cu21     Cu       0.25300    0.42333    0.83148    1.000
    I19      I        0.21658    0.57856    0.99133    1.000
    I20      I        0.26768    0.67820    0.83751    1.000
    I21      I        0.19896    0.34578    0.81126    1.000
    O37      O        0.45644    0.34490    0.02980    1.000
    O38      O        0.47824    0.15430    0.07730    1.000
    O39      O        0.45110    0.11680    0.93680    1.000
    O40      O        0.46650    0.90810    0.97220    1.000
    O41      O        0.52149    0.40040    0.06510    1.000
    O42      O        0.53161    0.61260    0.10280    1.000
    N19      N        0.30014    0.53700    0.01050    1.000
    N20      N        0.28736    0.29420    0.84480    1.000
    N21      N        0.68378    0.77020    0.31860    1.000
    C217     C        0.32917    0.57710    0.02930    1.000
    H145     H        0.33330    0.67060    0.02910    1.000
    C218     C        0.35340    0.48700    0.04890    1.000
    H146     H        0.37300    0.52110    0.06220    1.000
    C219     C        0.34850    0.34880    0.04880    1.000
    C220     C        0.31851    0.30430    0.03080    1.000
    H147     H        0.31390    0.21140    0.03150    1.000
    C221     C        0.29601    0.40070    0.01200    1.000
    H148     H        0.27620    0.36880    0.99930    1.000
    C222     C        0.37363    0.24820    0.06610    1.000
    C223     C        0.40178    0.28360    0.05820    1.000
    H149     H        0.40420    0.36910    0.04030    1.000
    C224     C        0.42651    0.19510    0.07630    1.000
    C225     C        0.42271    0.06470    0.10160    1.000
    H150     H        0.43880    0.00360    0.11340    1.000
    C226     C        0.39448    0.02750    0.10880    1.000
    H151     H        0.39180    0.94110    0.12540    1.000
    C227     C        0.37049    0.11840    0.09150    1.000
    H152     H        0.35190    0.09210    0.09690    1.000
    C228     C        0.45563    0.23470    0.06120    1.000
    C229     C        0.31645    0.33420    0.86260    1.000
    H153     H        0.32080    0.42770    0.86460    1.000
    C230     C        0.33988    0.24260    0.87760    1.000
    H154     H        0.35960    0.27570    0.88970    1.000
    C231     C        0.33519    0.10400    0.87540    1.000
    C232     C        0.30525    0.06200    0.85620    1.000
    H155     H        0.30060    0.96890    0.85280    1.000
    C233     C        0.28263    0.15780    0.84230    1.000
    H156     H        0.26280    0.12670    0.83030    1.000
    C234     C        0.36037    0.00070    0.89570    1.000
    C235     C        0.39052    0.03930    0.90960    1.000
    H157     H        0.39520    0.13090    0.90440    1.000
    C236     C        0.41347    0.94750    0.93070    1.000
    C237     C        0.40691    0.80950    0.93740    1.000
    H158     H        0.42240    0.74580    0.95160    1.000
    C238     C        0.37747    0.76900    0.92280    1.000
    H159     H        0.37300    0.67680    0.92700    1.000
    C239     C        0.35415    0.86180    0.90180    1.000
    H160     H        0.33420    0.83170    0.89180    1.000
    C240     C        0.44576    0.99250    0.94730    1.000
    C241     C        0.65498    0.80880    0.29660    1.000
    H161     H        0.65060    0.90150    0.29930    1.000
    C242     C        0.63126    0.72100    0.27020    1.000
    H162     H        0.61170    0.75530    0.25520    1.000
    C243     C        0.63650    0.58260    0.26590    1.000
    C244     C        0.66646    0.54040    0.28800    1.000
    H163     H        0.67140    0.44840    0.28480    1.000
    C245     C        0.68886    0.63450    0.31430    1.000
    H164     H        0.70860    0.60280    0.33000    1.000
    C246     C        0.61172    0.48600    0.23770    1.000
    C247     C        0.58622    0.52700    0.18850    1.000
    H165     H        0.58490    0.61740    0.17340    1.000
    C248     C        0.56284    0.43800    0.16150    1.000
    C249     C        0.56455    0.30430    0.18440    1.000
    H166     H        0.54890    0.24310    0.16640    1.000
    C250     C        0.58940    0.26140    0.23400    1.000
    H167     H        0.59010    0.17210    0.25030    1.000
    C251     C        0.61322    0.34970    0.25990    1.000
    H168     H        0.63020    0.31860    0.29200    1.000
    C252     C        0.53672    0.48610    0.10590    1.000
    Gd8      Gd       0.99661    0.74837    0.98342    1.000
    Cu22     Cu       0.71630    0.09326    0.86270    1.000
    Cu23     Cu       0.76634    0.16883    0.96705    1.000
    Cu24     Cu       0.75300    0.92333    0.83148    1.000
    I22      I        0.71658    0.07856    0.99133    1.000
    I23      I        0.76768    0.17820    0.83751    1.000
    I24      I        0.69896    0.84578    0.81126    1.000
    O43      O        0.95644    0.84490    0.02980    1.000
    O44      O        0.97824    0.65430    0.07730    1.000
    O45      O        0.95110    0.61680    0.93680    1.000
    O46      O        0.96650    0.40810    0.97220    1.000
    O47      O        0.02149    0.90040    0.06510    1.000
    O48      O        0.03161    0.11260    0.10280    1.000
    N22      N        0.80014    0.03700    0.01050    1.000
    N23      N        0.78736    0.79420    0.84480    1.000
    N24      N        0.18378    0.27020    0.31860    1.000
    C253     C        0.82917    0.07710    0.02930    1.000
    H169     H        0.83330    0.17060    0.02910    1.000
    C254     C        0.85340    0.98700    0.04890    1.000
    H170     H        0.87300    0.02110    0.06220    1.000
    C255     C        0.84850    0.84880    0.04880    1.000
    C256     C        0.81851    0.80430    0.03080    1.000
    H171     H        0.81390    0.71140    0.03150    1.000
    C257     C        0.79601    0.90070    0.01200    1.000
    H172     H        0.77620    0.86880    0.99930    1.000
    C258     C        0.87363    0.74820    0.06610    1.000
    C259     C        0.90178    0.78360    0.05820    1.000
    H173     H        0.90420    0.86910    0.04030    1.000
    C260     C        0.92651    0.69510    0.07630    1.000
    C261     C        0.92271    0.56470    0.10160    1.000
    H174     H        0.93880    0.50360    0.11340    1.000
    C262     C        0.89448    0.52750    0.10880    1.000
    H175     H        0.89180    0.44110    0.12540    1.000
    C263     C        0.87049    0.61840    0.09150    1.000
    H176     H        0.85190    0.59210    0.09690    1.000
    C264     C        0.95563    0.73470    0.06120    1.000
    C265     C        0.81645    0.83420    0.86260    1.000
    H177     H        0.82080    0.92770    0.86460    1.000
    C266     C        0.83988    0.74260    0.87760    1.000
    H178     H        0.85960    0.77570    0.88970    1.000
    C267     C        0.83519    0.60400    0.87540    1.000
    C268     C        0.80525    0.56200    0.85620    1.000
    H179     H        0.80060    0.46890    0.85280    1.000
    C269     C        0.78263    0.65780    0.84230    1.000
    H180     H        0.76280    0.62670    0.83030    1.000
    C270     C        0.86037    0.50070    0.89570    1.000
    C271     C        0.89052    0.53930    0.90960    1.000
    H181     H        0.89520    0.63090    0.90440    1.000
    C272     C        0.91347    0.44750    0.93070    1.000
    C273     C        0.90691    0.30950    0.93740    1.000
    H182     H        0.92240    0.24580    0.95160    1.000
    C274     C        0.87747    0.26900    0.92280    1.000
    H183     H        0.87300    0.17680    0.92700    1.000
    C275     C        0.85415    0.36180    0.90180    1.000
    H184     H        0.83420    0.33170    0.89180    1.000
    C276     C        0.94576    0.49250    0.94730    1.000
    C277     C        0.15498    0.30880    0.29660    1.000
    H185     H        0.15060    0.40150    0.29930    1.000
    C278     C        0.13126    0.22100    0.27020    1.000
    H186     H        0.11170    0.25530    0.25520    1.000
    C279     C        0.13650    0.08260    0.26590    1.000
    C280     C        0.16646    0.04040    0.28800    1.000
    H187     H        0.17140    0.94840    0.28480    1.000
    C281     C        0.18886    0.13450    0.31430    1.000
    H188     H        0.20860    0.10280    0.33000    1.000
    C282     C        0.11172    0.98600    0.23770    1.000
    C283     C        0.08622    0.02700    0.18850    1.000
    H189     H        0.08490    0.11740    0.17340    1.000
    C284     C        0.06284    0.93800    0.16150    1.000
    C285     C        0.06455    0.80430    0.18440    1.000
    H190     H        0.04890    0.74310    0.16640    1.000
    C286     C        0.08940    0.76140    0.23400    1.000
    H191     H        0.09010    0.67210    0.25030    1.000
    C287     C        0.11322    0.84970    0.25990    1.000
    H192     H        0.13020    0.81860    0.29200    1.000
    C288     C        0.03672    0.98610    0.10590    1.000
