# CIF file generated by openbabel 3.1.0, see https://openbabel.org
data_I
_chemical_name_common 'image0'
_cell_length_a 9.0982
_cell_length_b 11.8549
_cell_length_c 12.0113
_cell_angle_alpha 103.128
_cell_angle_beta 90.775
_cell_angle_gamma 91.887
_space_group_name_H-M_alt 'P 1'
_space_group_name_Hall 'P 1'
loop_
    _symmetry_equiv_pos_as_xyz
    x,y,z
loop_
    _atom_site_label
    _atom_site_type_symbol
    _atom_site_fract_x
    _atom_site_fract_y
    _atom_site_fract_z
    _atom_site_occupancy
    P1       P        0.80197    0.65389    0.43883    1.000
    P2       P        0.40715    0.72522    0.47226    1.000
    P3       P        0.77133    0.95765    0.14093    1.000
    P4       P        0.37561    0.96021    0.23712    1.000
    F1       F        0.93460    0.52165    0.59946    1.000
    F2       F        0.04170    0.89542    0.99232    1.000
    O1       O        0.77220    0.52200    0.40700    1.000
    O2       O        0.26090    0.65870    0.46830    1.000
    O3       O        0.96220    0.68890    0.48100    1.000
    O4       O        0.77320    0.70630    0.33540    1.000
    O5       O        0.47090    0.69230    0.35240    1.000
    O6       O        0.58500    0.63850    0.14150    1.000
    H1       H        0.63770    0.58520    0.15310    1.000
    O7       O        0.74720    0.84410    0.18020    1.000
    O8       O        0.44060    0.83980    0.20440    1.000
    O9       O        0.38760    0.85600    0.51320    1.000
    O10      O        0.62800    0.90820    0.39800    1.000
    O11      O        0.37190    0.00750    0.36630    1.000
    O12      O        0.21990    0.95360    0.18430    1.000
    O13      O        0.75090    0.93640    0.01100    1.000
    O14      O        0.92510    0.00760    0.18660    1.000
    C1       C        0.69390    0.71690    0.56110    1.000
    H2       H        0.74560    0.70410    0.62990    1.000
    H3       H        0.69530    0.80160    0.56740    1.000
    C2       C        0.53200    0.67620    0.56670    1.000
    H4       H        0.49870    0.70350    0.64610    1.000
    H5       H        0.52670    0.59040    0.54860    1.000
    C3       C        0.64900    0.06820    0.20710    1.000
    H6       H        0.65630    0.07520    0.29080    1.000
    H7       H        0.68710    0.14260    0.19250    1.000
    C4       C        0.48480    0.05590    0.17310    1.000
    H8       H        0.47620    0.02820    0.08900    1.000
    H9       H        0.44280    0.13370    0.19320    1.000
    V1       V        0.89297    0.39316    0.43911    1.000
    V2       V        0.60797    0.76668    0.26382    1.000
    V3       V        0.10120    0.05789    0.11035    1.000
    P5       P        0.19803    0.34611    0.56117    1.000
    P6       P        0.59285    0.27478    0.52774    1.000
    P7       P        0.22867    0.04235    0.85907    1.000
    P8       P        0.62439    0.03979    0.76288    1.000
    F3       F        0.06540    0.47835    0.40054    1.000
    F4       F        0.95830    0.10458    0.00768    1.000
    O15      O        0.22780    0.47800    0.59300    1.000
    O16      O        0.73910    0.34130    0.53170    1.000
    O17      O        0.03780    0.31110    0.51900    1.000
    O18      O        0.22680    0.29370    0.66460    1.000
    O19      O        0.52910    0.30770    0.64760    1.000
    O20      O        0.41500    0.36150    0.85850    1.000
    H10      H        0.36230    0.41480    0.84690    1.000
    O21      O        0.25280    0.15590    0.81980    1.000
    O22      O        0.55940    0.16020    0.79560    1.000
    O23      O        0.61240    0.14400    0.48680    1.000
    O24      O        0.37200    0.09180    0.60200    1.000
    O25      O        0.62810    0.99250    0.63370    1.000
    O26      O        0.78010    0.04640    0.81570    1.000
    O27      O        0.24910    0.06360    0.98900    1.000
    O28      O        0.07490    0.99240    0.81340    1.000
    C5       C        0.30610    0.28310    0.43890    1.000
    H11      H        0.25440    0.29590    0.37010    1.000
    H12      H        0.30470    0.19840    0.43260    1.000
    C6       C        0.46800    0.32380    0.43330    1.000
    H13      H        0.50130    0.29650    0.35390    1.000
    H14      H        0.47330    0.40960    0.45140    1.000
    C7       C        0.35100    0.93180    0.79290    1.000
    H15      H        0.34370    0.92480    0.70920    1.000
    H16      H        0.31290    0.85740    0.80750    1.000
    C8       C        0.51520    0.94410    0.82690    1.000
    H17      H        0.52380    0.97180    0.91100    1.000
    H18      H        0.55720    0.86630    0.80680    1.000
    V4       V        0.10703    0.60684    0.56089    1.000
    V5       V        0.39203    0.23332    0.73618    1.000
    V6       V        0.89880    0.94211    0.88965    1.000
    V7       V        0.50000    0.00000    0.50000    1.000
