# CIF file generated by openbabel 3.1.0, see https://openbabel.org
data_I
_chemical_name_common 'NEDWAW_clean'
_cell_length_a 13.4319
_cell_length_b 16.216
_cell_length_c 16.2911
_cell_angle_alpha 108.099
_cell_angle_beta 102.652
_cell_angle_gamma 106.188
_space_group_name_H-M_alt 'P 1'
_space_group_name_Hall 'P 1'
loop_
    _symmetry_equiv_pos_as_xyz
    x,y,z
loop_
    _atom_site_label
    _atom_site_type_symbol
    _atom_site_fract_x
    _atom_site_fract_y
    _atom_site_fract_z
    _atom_site_occupancy
    Mn1      Mn       0.20488    0.37799    0.39936    1.000
    Mn2      Mn       0.79512    0.62201    0.60064    1.000
    Mn3      Mn       0.50000    0.50000    0.50000    1.000
    H1       H        0.32980    0.10800    0.87460    1.000
    H2       H        0.44550    0.18880    0.94310    1.000
    H3       H        0.54050    0.32990    0.25060    1.000
    H4       H        0.55140    0.22390    0.11910    1.000
    H5       H        0.22410    0.09540    0.02720    1.000
    H6       H        0.53790    0.21770    0.70390    1.000
    H7       H        0.20310    0.64160    0.63060    1.000
    H8       H        0.51770    0.30510    0.61720    1.000
    H9       H        0.61100    0.05420    0.88220    1.000
    H10      H        0.55980    0.05370    0.96240    1.000
    H11      H        0.52530    0.09540    0.75750    1.000
    H12      H        0.52500    0.18920    0.82940    1.000
    H13      H        0.26620    0.79930    0.72590    1.000
    H14      H        0.72690    0.08240    0.04010    1.000
    H15      H        0.46010    0.69520    0.53760    1.000
    H16      H        0.52530    0.85070    0.63570    1.000
    H17      H        0.88230    0.14420    0.16960    1.000
    H18      H        0.31910    0.96060    0.76830    1.000
    H19      H        0.38620    0.93740    0.84710    1.000
    H20      H        0.21550    0.19890    0.15710    1.000
    H21      H        0.75260    0.34370    0.06820    1.000
    H22      H        0.91480    0.40570    0.19270    1.000
    H23      H        0.20950    0.10700    0.63710    1.000
    H24      H        0.18830    0.19850    0.55420    1.000
    H25      H        0.67020    0.89200    0.12540    1.000
    H26      H        0.55450    0.81120    0.05690    1.000
    H27      H        0.45950    0.67010    0.74940    1.000
    H28      H        0.44860    0.77610    0.88090    1.000
    H29      H        0.77590    0.90460    0.97280    1.000
    H30      H        0.46210    0.78230    0.29610    1.000
    H31      H        0.79690    0.35840    0.36940    1.000
    H32      H        0.48230    0.69490    0.38280    1.000
    H33      H        0.38900    0.94580    0.11780    1.000
    H34      H        0.44020    0.94630    0.03760    1.000
    H35      H        0.47470    0.90460    0.24250    1.000
    H36      H        0.47500    0.81080    0.17060    1.000
    H37      H        0.73380    0.20070    0.27410    1.000
    H38      H        0.27310    0.91760    0.95990    1.000
    H39      H        0.53990    0.30480    0.46240    1.000
    H40      H        0.47470    0.14930    0.36430    1.000
    H41      H        0.11770    0.85580    0.83040    1.000
    H42      H        0.68090    0.03940    0.23170    1.000
    H43      H        0.61380    0.06260    0.15290    1.000
    H44      H        0.78450    0.80110    0.84290    1.000
    H45      H        0.24740    0.65630    0.93180    1.000
    H46      H        0.08520    0.59430    0.80730    1.000
    H47      H        0.79050    0.89300    0.36290    1.000
    H48      H        0.81170    0.80150    0.44580    1.000
    C1       C        0.36890    0.34510    0.29970    1.000
    C2       C        0.40400    0.12030    0.91460    1.000
    C3       C        0.47500    0.28230    0.20480    1.000
    C4       C        0.48190    0.21840    0.12640    1.000
    C5       C        0.38850    0.14890    0.06120    1.000
    C6       C        0.28990    0.14300    0.07260    1.000
    C7       C        0.46680    0.21430    0.67400    1.000
    C8       C        0.37490    0.15770    0.68180    1.000
    C9       C        0.72550    0.20870    0.04240    1.000
    C10      C        0.32590    0.65150    0.57450    1.000
    C11      C        0.26860    0.68420    0.63140    1.000
    C12      C        0.46290    0.07280    0.85800    1.000
    C13      C        0.45420    0.26580    0.62230    1.000
    C14      C        0.57160    0.08400    0.91930    1.000
    C15      C        0.48270    0.12140    0.79380    1.000
    C16      C        0.30630    0.77770    0.68850    1.000
    C17      C        0.76400    0.14820    0.07190    1.000
    C18      C        0.40230    0.83930    0.69100    1.000
    C19      C        0.42110    0.71570    0.57670    1.000
    C20      C        0.45950    0.80790    0.63440    1.000
    C21      C        0.85690    0.18540    0.14820    1.000
    C22      C        0.01770    0.32000    0.27480    1.000
    C23      C        0.91370    0.27990    0.19400    1.000
    C24      C        0.37810    0.27690    0.21570    1.000
    C25      C        0.28630    0.55210    0.51610    1.000
    C26      C        0.34000    0.32270    0.52630    1.000
    C27      C        0.35240    0.26210    0.57790    1.000
    C28      C        0.39350    0.96940    0.80460    1.000
    C29      C        0.28490    0.20520    0.14940    1.000
    C30      C        0.78030    0.30270    0.08800    1.000
    C31      C        0.87580    0.33990    0.16300    1.000
    C32      C        0.27270    0.14970    0.63490    1.000
    C33      C        0.25970    0.20260    0.58430    1.000
    C34      C        0.63110    0.65490    0.70030    1.000
    C35      C        0.59600    0.87970    0.08540    1.000
    C36      C        0.52500    0.71770    0.79520    1.000
    C37      C        0.51810    0.78160    0.87360    1.000
    C38      C        0.61150    0.85110    0.93880    1.000
    C39      C        0.71010    0.85700    0.92740    1.000
    C40      C        0.53320    0.78570    0.32600    1.000
    C41      C        0.62510    0.84230    0.31820    1.000
    C42      C        0.27450    0.79130    0.95760    1.000
    C43      C        0.67410    0.34850    0.42550    1.000
    C44      C        0.73140    0.31580    0.36860    1.000
    C45      C        0.53710    0.92720    0.14200    1.000
    C46      C        0.54580    0.73420    0.37770    1.000
    C47      C        0.42840    0.91600    0.08070    1.000
    C48      C        0.51730    0.87860    0.20620    1.000
    C49      C        0.69370    0.22230    0.31150    1.000
    C50      C        0.23600    0.85180    0.92810    1.000
    C51      C        0.59770    0.16070    0.30900    1.000
    C52      C        0.57890    0.28430    0.42330    1.000
    C53      C        0.54050    0.19210    0.36560    1.000
    C54      C        0.14310    0.81460    0.85180    1.000
    C55      C        0.98230    0.68000    0.72520    1.000
    C56      C        0.08630    0.72010    0.80600    1.000
    C57      C        0.62190    0.72310    0.78430    1.000
    C58      C        0.71370    0.44790    0.48390    1.000
    C59      C        0.66000    0.67730    0.47370    1.000
    C60      C        0.64760    0.73790    0.42210    1.000
    C61      C        0.60650    0.03060    0.19540    1.000
    C62      C        0.71510    0.79480    0.85060    1.000
    C63      C        0.21970    0.69730    0.91200    1.000
    C64      C        0.12420    0.66010    0.83700    1.000
    C65      C        0.72730    0.85030    0.36510    1.000
    C66      C        0.74030    0.79740    0.41570    1.000
    O1       O        0.45640    0.40794    0.35825    1.000
    O2       O        0.63480    0.18161    0.96881    1.000
    O3       O        0.39410    0.08509    0.98599    1.000
    O4       O        0.44830    0.93179    0.74545    1.000
    O5       O        0.37770    0.10607    0.73426    1.000
    O6       O        0.19660    0.49606    0.50984    1.000
    O7       O        0.27590    0.33140    0.30401    1.000
    O8       O        0.34120    0.52166    0.46698    1.000
    O9       O        0.42570    0.38263    0.53183    1.000
    O10      O        0.03820    0.26880    0.31463    1.000
    O11      O        0.08420    0.40280    0.29838    1.000
    O12      O        0.24300    0.30890    0.48304    1.000
    O13      O        0.54360    0.59206    0.64175    1.000
    O14      O        0.36520    0.81839    0.03119    1.000
    O15      O        0.60590    0.91491    0.01401    1.000
    O16      O        0.55170    0.06821    0.25455    1.000
    O17      O        0.62230    0.89393    0.26574    1.000
    O18      O        0.80340    0.50394    0.49016    1.000
    O19      O        0.72410    0.66860    0.69599    1.000
    O20      O        0.65880    0.47834    0.53302    1.000
    O21      O        0.57430    0.61737    0.46817    1.000
    O22      O        0.96180    0.73120    0.68537    1.000
    O23      O        0.91580    0.59720    0.70162    1.000
    O24      O        0.75700    0.69110    0.51696    1.000
