# CIF file generated by openbabel 3.1.0, see https://openbabel.org
data_I
_chemical_name_common 'image0'
_cell_length_a 11.3729
_cell_length_b 9.9463
_cell_length_c 14.5118
_cell_angle_alpha 90
_cell_angle_beta 91.2783
_cell_angle_gamma 90
_space_group_name_H-M_alt 'P 1'
_space_group_name_Hall 'P 1'
loop_
    _symmetry_equiv_pos_as_xyz
    x,y,z
loop_
    _atom_site_label
    _atom_site_type_symbol
    _atom_site_fract_x
    _atom_site_fract_y
    _atom_site_fract_z
    _atom_site_occupancy
    Co1      Co       0.25477    0.42208    0.13353    1.000
    Co2      Co       0.23921    0.61426    0.30919    1.000
    O1       O        0.34805    0.58268    0.19574    1.000
    O2       O        0.50984    0.62210    0.11547    1.000
    C1       C        0.44456    0.64291    0.18049    1.000
    H1       H        0.46840    0.71030    0.22340    1.000
    O3       O        0.18492    0.52599    0.02297    1.000
    O4       O        0.34905    0.60206    0.95788    1.000
    C2       C        0.24098    0.59905    0.96605    1.000
    H2       H        0.19560    0.65600    0.92660    1.000
    O5       O        0.15736    0.24471    0.10835    1.000
    O6       O        0.02093    0.29386    0.99940    1.000
    C3       C        0.07800    0.21420    0.04833    1.000
    H3       H        0.06110    0.12130    0.04040    1.000
    O7       O        0.30439    0.30342    0.24837    1.000
    O8       O        0.30354    0.44243    0.37011    1.000
    C4       C        0.31797    0.33055    0.33401    1.000
    H4       H        0.34120    0.25880    0.37360    1.000
    O9       O        0.40133    0.34919    0.06636    1.000
    O10      O        0.39561    0.12863    0.09992    1.000
    C5       C        0.43797    0.22800    0.06123    1.000
    H5       H        0.50430    0.21250    0.02400    1.000
    O11      O        0.12868    0.50825    0.21747    1.000
    O12      O        0.95728    0.50074    0.13917    1.000
    C6       C        0.01732    0.51772    0.21010    1.000
    H6       H        0.97650    0.54000    0.26440    1.000
    Co3      Co       0.24523    0.92208    0.36647    1.000
    Co4      Co       0.26079    0.11426    0.19081    1.000
    O13      O        0.15195    0.08268    0.30426    1.000
    O14      O        0.99016    0.12210    0.38453    1.000
    C7       C        0.05544    0.14291    0.31951    1.000
    H7       H        0.03160    0.21030    0.27660    1.000
    O15      O        0.31508    0.02599    0.47703    1.000
    O16      O        0.15095    0.10206    0.54212    1.000
    C8       C        0.25902    0.09905    0.53395    1.000
    H8       H        0.30440    0.15600    0.57340    1.000
    O17      O        0.34264    0.74471    0.39165    1.000
    O18      O        0.47907    0.79386    0.50060    1.000
    C9       C        0.42200    0.71420    0.45167    1.000
    H9       H        0.43890    0.62130    0.45960    1.000
    O19      O        0.19561    0.80342    0.25163    1.000
    O20      O        0.19646    0.94243    0.12989    1.000
    C10      C        0.18203    0.83055    0.16599    1.000
    H10      H        0.15880    0.75880    0.12640    1.000
    O21      O        0.09867    0.84919    0.43364    1.000
    O22      O        0.10439    0.62863    0.40008    1.000
    C11      C        0.06203    0.72800    0.43877    1.000
    H11      H        0.99570    0.71250    0.47600    1.000
    O23      O        0.37132    0.00825    0.28253    1.000
    O24      O        0.54272    0.00074    0.36083    1.000
    C12      C        0.48268    0.01772    0.28990    1.000
    H12      H        0.52350    0.04000    0.23560    1.000
    Co5      Co       0.74523    0.57792    0.86647    1.000
    Co6      Co       0.76079    0.38574    0.69081    1.000
    O25      O        0.65195    0.41732    0.80426    1.000
    O26      O        0.49016    0.37790    0.88453    1.000
    C13      C        0.55544    0.35709    0.81951    1.000
    H13      H        0.53160    0.28970    0.77660    1.000
    O27      O        0.81508    0.47401    0.97703    1.000
    O28      O        0.65095    0.39794    0.04212    1.000
    C14      C        0.75902    0.40095    0.03395    1.000
    H14      H        0.80440    0.34400    0.07340    1.000
    O29      O        0.84264    0.75529    0.89165    1.000
    O30      O        0.97907    0.70614    0.00060    1.000
    C15      C        0.92200    0.78580    0.95167    1.000
    H15      H        0.93890    0.87870    0.95960    1.000
    O31      O        0.69561    0.69658    0.75163    1.000
    O32      O        0.69646    0.55757    0.62989    1.000
    C16      C        0.68203    0.66945    0.66599    1.000
    H16      H        0.65880    0.74120    0.62640    1.000
    O33      O        0.59867    0.65081    0.93364    1.000
    O34      O        0.60439    0.87137    0.90008    1.000
    C17      C        0.56203    0.77200    0.93877    1.000
    H17      H        0.49570    0.78750    0.97600    1.000
    O35      O        0.87132    0.49175    0.78253    1.000
    O36      O        0.04272    0.49926    0.86083    1.000
    C18      C        0.98268    0.48228    0.78990    1.000
    H18      H        0.02350    0.46000    0.73560    1.000
    Co7      Co       0.75477    0.07792    0.63353    1.000
    Co8      Co       0.73921    0.88574    0.80919    1.000
    O37      O        0.84805    0.91732    0.69574    1.000
    O38      O        0.00984    0.87790    0.61547    1.000
    C19      C        0.94456    0.85709    0.68049    1.000
    H19      H        0.96840    0.78970    0.72340    1.000
    O39      O        0.68492    0.97401    0.52297    1.000
    O40      O        0.84905    0.89794    0.45788    1.000
    C20      C        0.74098    0.90095    0.46605    1.000
    H20      H        0.69560    0.84400    0.42660    1.000
    O41      O        0.65736    0.25529    0.60835    1.000
    O42      O        0.52093    0.20614    0.49940    1.000
    C21      C        0.57800    0.28580    0.54833    1.000
    H21      H        0.56110    0.37870    0.54040    1.000
    O43      O        0.80439    0.19658    0.74837    1.000
    O44      O        0.80354    0.05757    0.87011    1.000
    C22      C        0.81797    0.16945    0.83401    1.000
    H22      H        0.84120    0.24120    0.87360    1.000
    O45      O        0.90133    0.15081    0.56636    1.000
    O46      O        0.89561    0.37137    0.59992    1.000
    C23      C        0.93797    0.27200    0.56123    1.000
    H23      H        0.00430    0.28750    0.52400    1.000
    O47      O        0.62868    0.99175    0.71747    1.000
    O48      O        0.45728    0.99926    0.63917    1.000
    C24      C        0.51732    0.98228    0.71010    1.000
    H24      H        0.47650    0.96000    0.76440    1.000
    Co9      Co       0.50000    0.50000    0.00000    1.000
    Co10     Co       0.00000    0.00000    0.50000    1.000
    Co11     Co       0.00000    0.50000    0.00000    1.000
    Co12     Co       0.50000    0.00000    0.50000    1.000
