# CIF file generated by openbabel 3.1.0, see https://openbabel.org
data_I
_chemical_name_common 'image0'
_cell_length_a 16.7033
_cell_length_b 20.0195
_cell_length_c 17.4602
_cell_angle_alpha 90
_cell_angle_beta 100.423
_cell_angle_gamma 90
_space_group_name_H-M_alt 'P 1'
_space_group_name_Hall 'P 1'
loop_
    _symmetry_equiv_pos_as_xyz
    x,y,z
loop_
    _atom_site_label
    _atom_site_type_symbol
    _atom_site_fract_x
    _atom_site_fract_y
    _atom_site_fract_z
    _atom_site_occupancy
    Co1      Co       0.95911    0.16580    0.24332    1.000
    Co2      Co       0.85349    0.12517    0.05558    1.000
    Co3      Co       0.08528    0.14594    0.43907    1.000
    S1       S        0.05238    0.77511    0.26585    1.000
    S2       S        0.60313    0.01649    0.46048    1.000
    S3       S        0.44446    0.06989    0.16560    1.000
    O1       O        0.47840    0.26510    0.66260    1.000
    O2       O        0.93900    0.10070    0.33080    1.000
    O3       O        0.08040    0.13690    0.24900    1.000
    O4       O        0.66350    0.69350    0.26690    1.000
    O5       O        0.50820    0.74030    0.17220    1.000
    O6       O        0.92650    0.08666    0.16440    1.000
    O7       O        0.71840    0.68450    0.39340    1.000
    O8       O        0.43810    0.30590    0.54210    1.000
    O9       O        0.93290    0.04380    0.05150    1.000
    O10      O        0.98450    0.10860    0.45790    1.000
    O11      O        0.14690    0.10690    0.36690    1.000
    O12      O        0.41170    0.74360    0.06570    1.000
    O13      O        0.07190    0.73200    0.20620    1.000
    O14      O        0.10690    0.77990    0.33850    1.000
    O15      O        0.55190    0.00120    0.38770    1.000
    O16      O        0.61440    0.96740    0.52130    1.000
    O17      O        0.51340    0.08690    0.22350    1.000
    O18      O        0.43420    0.10140    0.09090    1.000
    C1       C        0.94980    0.04010    0.12340    1.000
    C2       C        0.98850    0.97910    0.16140    1.000
    C3       C        0.00520    0.92670    0.11580    1.000
    H1       H        0.00110    0.93320    0.06250    1.000
    C4       C        0.02790    0.86490    0.14710    1.000
    H2       H        0.03730    0.82960    0.11540    1.000
    C5       C        0.03620    0.85670    0.22560    1.000
    C6       C        0.02450    0.90900    0.27440    1.000
    H3       H        0.03170    0.90280    0.32800    1.000
    C7       C        0.00170    0.97110    0.24140    1.000
    H4       H        0.99530    0.00720    0.27330    1.000
    C8       C        0.95530    0.75250    0.28290    1.000
    C9       C        0.89260    0.74270    0.22070    1.000
    H5       H        0.90210    0.74700    0.17010    1.000
    C10      C        0.81630    0.72660    0.23330    1.000
    H6       H        0.77370    0.72100    0.19150    1.000
    C11      C        0.80330    0.71890    0.30900    1.000
    C12      C        0.86770    0.72760    0.37120    1.000
    H7       H        0.85940    0.72040    0.42190    1.000
    C13      C        0.94330    0.74680    0.35840    1.000
    H8       H        0.98530    0.75560    0.39990    1.000
    C14      C        0.72040    0.69730    0.32300    1.000
    C15      C        0.93000    0.09640    0.39970    1.000
    C16      C        0.84980    0.07370    0.41460    1.000
    C17      C        0.78230    0.07940    0.35530    1.000
    H9       H        0.78820    0.09480    0.30630    1.000
    C18      C        0.70620    0.06180    0.36990    1.000
    H10      H        0.66000    0.06630    0.33160    1.000
    C19      C        0.70060    0.03770    0.44250    1.000
    C20      C        0.76700    0.03040    0.50100    1.000
    H11      H        0.76100    0.01340    0.54920    1.000
    C21      C        0.84250    0.04880    0.48730    1.000
    H12      H        0.88820    0.04460    0.52630    1.000
    C22      C        0.56870    0.09070    0.49710    1.000
    C23      C        0.52440    0.13690    0.44680    1.000
    H13      H        0.51520    0.13000    0.39330    1.000
    C24      C        0.49440    0.19250    0.47700    1.000
    H14      H        0.46420    0.22330    0.44380    1.000
    C25      C        0.50850    0.20360    0.55650    1.000
    C26      C        0.55440    0.15810    0.60580    1.000
    H15      H        0.56540    0.16600    0.65920    1.000
    C27      C        0.58400    0.10100    0.57600    1.000
    H16      H        0.61380    0.06990    0.60920    1.000
    C28      C        0.47240    0.26310    0.58970    1.000
    C29      C        0.14090    0.11700    0.29560    1.000
    C30      C        0.21640    0.10390    0.26240    1.000
    C31      C        0.28720    0.08190    0.31110    1.000
    H17      H        0.28710    0.07430    0.36360    1.000
    C32      C        0.35750    0.07150    0.28150    1.000
    H18      H        0.40480    0.05660    0.31350    1.000
    C33      C        0.35590    0.08360    0.20320    1.000
    C34      C        0.28760    0.10760    0.15530    1.000
    H19      H        0.28870    0.11750    0.10340    1.000
    C35      C        0.21740    0.11700    0.18490    1.000
    H20      H        0.17050    0.13220    0.15260    1.000
    C36      C        0.44630    0.98220    0.15280    1.000
    C37      C        0.48620    0.94270    0.21230    1.000
    H21      H        0.51050    0.96190    0.25930    1.000
    C38      C        0.48990    0.87460    0.20150    1.000
    H22      H        0.51850    0.84810    0.24090    1.000
    C39      C        0.45100    0.84490    0.13200    1.000
    C40      C        0.40790    0.88650    0.07400    1.000
    H23      H        0.38010    0.86740    0.02820    1.000
    C41      C        0.40590    0.95310    0.08300    1.000
    H24      H        0.37790    0.97990    0.04350    1.000
    C42      C        0.45760    0.77100    0.12340    1.000
    Co4      Co       0.54089    0.66580    0.25668    1.000
    Co5      Co       0.64651    0.62517    0.44442    1.000
    Co6      Co       0.41472    0.64594    0.06093    1.000
    S4       S        0.44762    0.27511    0.23415    1.000
    S5       S        0.89687    0.51649    0.03952    1.000
    S6       S        0.05554    0.56989    0.33440    1.000
    O19      O        0.02160    0.76510    0.83740    1.000
    O20      O        0.56100    0.60070    0.16920    1.000
    O21      O        0.41960    0.63690    0.25100    1.000
    O22      O        0.83650    0.19350    0.23310    1.000
    O23      O        0.99180    0.24030    0.32780    1.000
    O24      O        0.57350    0.58666    0.33560    1.000
    O25      O        0.78160    0.18450    0.10660    1.000
    O26      O        0.06190    0.80590    0.95790    1.000
    O27      O        0.56710    0.54380    0.44850    1.000
    O28      O        0.51550    0.60860    0.04210    1.000
    O29      O        0.35310    0.60690    0.13310    1.000
    O30      O        0.08830    0.24360    0.43430    1.000
    O31      O        0.42810    0.23200    0.29380    1.000
    O32      O        0.39310    0.27990    0.16150    1.000
    O33      O        0.94810    0.50120    0.11230    1.000
    O34      O        0.88560    0.46740    0.97870    1.000
    O35      O        0.98660    0.58690    0.27650    1.000
    O36      O        0.06580    0.60140    0.40910    1.000
    C43      C        0.55020    0.54010    0.37660    1.000
    C44      C        0.51150    0.47910    0.33860    1.000
    C45      C        0.49480    0.42670    0.38420    1.000
    H25      H        0.49890    0.43320    0.43750    1.000
    C46      C        0.47210    0.36490    0.35290    1.000
    H26      H        0.46270    0.32960    0.38460    1.000
    C47      C        0.46380    0.35670    0.27440    1.000
    C48      C        0.47550    0.40900    0.22560    1.000
    H27      H        0.46830    0.40280    0.17200    1.000
    C49      C        0.49830    0.47110    0.25860    1.000
    H28      H        0.50470    0.50720    0.22670    1.000
    C50      C        0.54470    0.25250    0.21710    1.000
    C51      C        0.60740    0.24270    0.27930    1.000
    H29      H        0.59790    0.24700    0.32990    1.000
    C52      C        0.68370    0.22660    0.26670    1.000
    H30      H        0.72630    0.22100    0.30850    1.000
    C53      C        0.69670    0.21890    0.19100    1.000
    C54      C        0.63230    0.22760    0.12880    1.000
    H31      H        0.64060    0.22040    0.07810    1.000
    C55      C        0.55670    0.24680    0.14160    1.000
    H32      H        0.51470    0.25560    0.10010    1.000
    C56      C        0.77960    0.19730    0.17700    1.000
    C57      C        0.57000    0.59640    0.10030    1.000
    C58      C        0.65020    0.57370    0.08540    1.000
    C59      C        0.71770    0.57940    0.14470    1.000
    H33      H        0.71180    0.59480    0.19370    1.000
    C60      C        0.79380    0.56180    0.13010    1.000
    H34      H        0.84000    0.56630    0.16840    1.000
    C61      C        0.79940    0.53770    0.05750    1.000
    C62      C        0.73300    0.53040    0.99900    1.000
    H35      H        0.73900    0.51340    0.95080    1.000
    C63      C        0.65750    0.54880    0.01270    1.000
    H36      H        0.61180    0.54460    0.97370    1.000
    C64      C        0.93130    0.59070    0.00290    1.000
    C65      C        0.97560    0.63690    0.05320    1.000
    H37      H        0.98480    0.63000    0.10670    1.000
    C66      C        0.00560    0.69250    0.02300    1.000
    H38      H        0.03580    0.72330    0.05620    1.000
    C67      C        0.99150    0.70360    0.94350    1.000
    C68      C        0.94560    0.65810    0.89420    1.000
    H39      H        0.93460    0.66600    0.84080    1.000
    C69      C        0.91600    0.60100    0.92400    1.000
    H40      H        0.88620    0.56990    0.89080    1.000
    C70      C        0.02760    0.76310    0.91030    1.000
    C71      C        0.35910    0.61700    0.20440    1.000
    C72      C        0.28360    0.60390    0.23760    1.000
    C73      C        0.21280    0.58190    0.18890    1.000
    H41      H        0.21290    0.57430    0.13640    1.000
    C74      C        0.14250    0.57150    0.21850    1.000
    H42      H        0.09520    0.55660    0.18650    1.000
    C75      C        0.14410    0.58360    0.29680    1.000
    C76      C        0.21240    0.60760    0.34470    1.000
    H43      H        0.21130    0.61750    0.39660    1.000
    C77      C        0.28260    0.61700    0.31510    1.000
    H44      H        0.32950    0.63220    0.34740    1.000
    C78      C        0.05370    0.48220    0.34720    1.000
    C79      C        0.01380    0.44270    0.28770    1.000
    H45      H        0.98950    0.46190    0.24070    1.000
    C80      C        0.01010    0.37460    0.29850    1.000
    H46      H        0.98150    0.34810    0.25910    1.000
    C81      C        0.04900    0.34490    0.36800    1.000
    C82      C        0.09210    0.38650    0.42600    1.000
    H47      H        0.11990    0.36740    0.47180    1.000
    C83      C        0.09410    0.45310    0.41700    1.000
    H48      H        0.12210    0.47990    0.45650    1.000
    C84      C        0.04240    0.27100    0.37660    1.000
    Co7      Co       0.04089    0.83420    0.75668    1.000
    Co8      Co       0.14651    0.87483    0.94442    1.000
    Co9      Co       0.91472    0.85406    0.56093    1.000
    S7       S        0.94762    0.22489    0.73415    1.000
    S8       S        0.39687    0.98351    0.53952    1.000
    S9       S        0.55554    0.93011    0.83440    1.000
    O37      O        0.52160    0.73490    0.33740    1.000
    O38      O        0.06100    0.89930    0.66920    1.000
    O39      O        0.91960    0.86310    0.75100    1.000
    O40      O        0.33650    0.30650    0.73310    1.000
    O41      O        0.49180    0.25970    0.82780    1.000
    O42      O        0.07350    0.91334    0.83560    1.000
    O43      O        0.28160    0.31550    0.60660    1.000
    O44      O        0.56190    0.69410    0.45790    1.000
    O45      O        0.06710    0.95620    0.94850    1.000
    O46      O        0.01550    0.89140    0.54210    1.000
    O47      O        0.85310    0.89310    0.63310    1.000
    O48      O        0.58830    0.25640    0.93430    1.000
    O49      O        0.92810    0.26800    0.79380    1.000
    O50      O        0.89310    0.22010    0.66150    1.000
    O51      O        0.44810    0.99880    0.61230    1.000
    O52      O        0.38560    0.03260    0.47870    1.000
    O53      O        0.48660    0.91310    0.77650    1.000
    O54      O        0.56580    0.89860    0.90910    1.000
    C85      C        0.05020    0.95990    0.87660    1.000
    C86      C        0.01150    0.02090    0.83860    1.000
    C87      C        0.99480    0.07330    0.88420    1.000
    H49      H        0.99890    0.06680    0.93750    1.000
    C88      C        0.97210    0.13510    0.85290    1.000
    H50      H        0.96270    0.17040    0.88460    1.000
    C89      C        0.96380    0.14330    0.77440    1.000
    C90      C        0.97550    0.09100    0.72560    1.000
    H51      H        0.96830    0.09720    0.67200    1.000
    C91      C        0.99830    0.02890    0.75860    1.000
    H52      H        0.00470    0.99280    0.72670    1.000
    C92      C        0.04470    0.24750    0.71710    1.000
    C93      C        0.10740    0.25730    0.77930    1.000
    H53      H        0.09790    0.25300    0.82990    1.000
    C94      C        0.18370    0.27340    0.76670    1.000
    H54      H        0.22630    0.27900    0.80850    1.000
    C95      C        0.19670    0.28110    0.69100    1.000
    C96      C        0.13230    0.27240    0.62880    1.000
    H55      H        0.14060    0.27960    0.57810    1.000
    C97      C        0.05670    0.25320    0.64160    1.000
    H56      H        0.01470    0.24440    0.60010    1.000
    C98      C        0.27960    0.30270    0.67700    1.000
    C99      C        0.07000    0.90360    0.60030    1.000
    C100     C        0.15020    0.92630    0.58540    1.000
    C101     C        0.21770    0.92060    0.64470    1.000
    H57      H        0.21180    0.90520    0.69370    1.000
    C102     C        0.29380    0.93820    0.63010    1.000
    H58      H        0.34000    0.93370    0.66840    1.000
    C103     C        0.29940    0.96230    0.55750    1.000
    C104     C        0.23300    0.96960    0.49900    1.000
    H59      H        0.23900    0.98660    0.45080    1.000
    C105     C        0.15750    0.95120    0.51270    1.000
    H60      H        0.11180    0.95540    0.47370    1.000
    C106     C        0.43130    0.90930    0.50290    1.000
    C107     C        0.47560    0.86310    0.55320    1.000
    H61      H        0.48480    0.87000    0.60670    1.000
    C108     C        0.50560    0.80750    0.52300    1.000
    H62      H        0.53580    0.77670    0.55620    1.000
    C109     C        0.49150    0.79640    0.44350    1.000
    C110     C        0.44560    0.84190    0.39420    1.000
    H63      H        0.43460    0.83400    0.34080    1.000
    C111     C        0.41600    0.89900    0.42400    1.000
    H64      H        0.38620    0.93010    0.39080    1.000
    C112     C        0.52760    0.73690    0.41030    1.000
    C113     C        0.85910    0.88300    0.70440    1.000
    C114     C        0.78360    0.89610    0.73760    1.000
    C115     C        0.71280    0.91810    0.68890    1.000
    H65      H        0.71290    0.92570    0.63640    1.000
    C116     C        0.64250    0.92850    0.71850    1.000
    H66      H        0.59520    0.94340    0.68650    1.000
    C117     C        0.64410    0.91640    0.79680    1.000
    C118     C        0.71240    0.89240    0.84470    1.000
    H67      H        0.71130    0.88250    0.89660    1.000
    C119     C        0.78260    0.88300    0.81510    1.000
    H68      H        0.82950    0.86780    0.84740    1.000
    C120     C        0.55370    0.01780    0.84720    1.000
    C121     C        0.51380    0.05730    0.78770    1.000
    H69      H        0.48950    0.03810    0.74070    1.000
    C122     C        0.51010    0.12540    0.79850    1.000
    H70      H        0.48150    0.15190    0.75910    1.000
    C123     C        0.54900    0.15510    0.86800    1.000
    C124     C        0.59210    0.11350    0.92600    1.000
    H71      H        0.61990    0.13260    0.97180    1.000
    C125     C        0.59410    0.04690    0.91700    1.000
    H72      H        0.62210    0.02010    0.95650    1.000
    C126     C        0.54240    0.22900    0.87660    1.000
    Co10     Co       0.45911    0.33420    0.74332    1.000
    Co11     Co       0.35349    0.37483    0.55558    1.000
    Co12     Co       0.58528    0.35406    0.93907    1.000
    S10      S        0.55238    0.72489    0.76585    1.000
    S11      S        0.10313    0.48351    0.96048    1.000
    S12      S        0.94446    0.43011    0.66560    1.000
    O55      O        0.97840    0.23490    0.16260    1.000
    O56      O        0.43900    0.39930    0.83080    1.000
    O57      O        0.58040    0.36310    0.74900    1.000
    O58      O        0.16350    0.80650    0.76690    1.000
    O59      O        0.00820    0.75970    0.67220    1.000
    O60      O        0.42650    0.41334    0.66440    1.000
    O61      O        0.21840    0.81550    0.89340    1.000
    O62      O        0.93810    0.19410    0.04210    1.000
    O63      O        0.43290    0.45620    0.55150    1.000
    O64      O        0.48450    0.39140    0.95790    1.000
    O65      O        0.64690    0.39310    0.86690    1.000
    O66      O        0.91170    0.75640    0.56570    1.000
    O67      O        0.57190    0.76800    0.70620    1.000
    O68      O        0.60690    0.72010    0.83850    1.000
    O69      O        0.05190    0.49880    0.88770    1.000
    O70      O        0.11440    0.53260    0.02130    1.000
    O71      O        0.01340    0.41310    0.72350    1.000
    O72      O        0.93420    0.39860    0.59090    1.000
    C127     C        0.44980    0.45990    0.62340    1.000
    C128     C        0.48850    0.52090    0.66140    1.000
    C129     C        0.50520    0.57330    0.61580    1.000
    H73      H        0.50110    0.56680    0.56250    1.000
    C130     C        0.52790    0.63510    0.64710    1.000
    H74      H        0.53730    0.67040    0.61540    1.000
    C131     C        0.53620    0.64330    0.72560    1.000
    C132     C        0.52450    0.59100    0.77440    1.000
    H75      H        0.53170    0.59720    0.82800    1.000
    C133     C        0.50170    0.52890    0.74140    1.000
    H76      H        0.49530    0.49280    0.77330    1.000
    C134     C        0.45530    0.74750    0.78290    1.000
    C135     C        0.39260    0.75730    0.72070    1.000
    H77      H        0.40210    0.75300    0.67010    1.000
    C136     C        0.31630    0.77340    0.73330    1.000
    H78      H        0.27370    0.77900    0.69150    1.000
    C137     C        0.30330    0.78110    0.80900    1.000
    C138     C        0.36770    0.77240    0.87120    1.000
    H79      H        0.35940    0.77960    0.92190    1.000
    C139     C        0.44330    0.75320    0.85840    1.000
    H80      H        0.48530    0.74440    0.89990    1.000
    C140     C        0.22040    0.80270    0.82300    1.000
    C141     C        0.43000    0.40360    0.89970    1.000
    C142     C        0.34980    0.42630    0.91460    1.000
    C143     C        0.28230    0.42060    0.85530    1.000
    H81      H        0.28820    0.40520    0.80630    1.000
    C144     C        0.20620    0.43820    0.86990    1.000
    H82      H        0.16000    0.43370    0.83160    1.000
    C145     C        0.20060    0.46230    0.94250    1.000
    C146     C        0.26700    0.46960    0.00100    1.000
    H83      H        0.26100    0.48660    0.04920    1.000
    C147     C        0.34250    0.45120    0.98730    1.000
    H84      H        0.38820    0.45540    0.02630    1.000
    C148     C        0.06870    0.40930    0.99710    1.000
    C149     C        0.02440    0.36310    0.94680    1.000
    H85      H        0.01520    0.37000    0.89330    1.000
    C150     C        0.99440    0.30750    0.97700    1.000
    H86      H        0.96420    0.27670    0.94380    1.000
    C151     C        0.00850    0.29640    0.05650    1.000
    C152     C        0.05440    0.34190    0.10580    1.000
    H87      H        0.06540    0.33400    0.15920    1.000
    C153     C        0.08400    0.39900    0.07600    1.000
    H88      H        0.11380    0.43010    0.10920    1.000
    C154     C        0.97240    0.23690    0.08970    1.000
    C155     C        0.64090    0.38300    0.79560    1.000
    C156     C        0.71640    0.39610    0.76240    1.000
    C157     C        0.78720    0.41810    0.81110    1.000
    H89      H        0.78710    0.42570    0.86360    1.000
    C158     C        0.85750    0.42850    0.78150    1.000
    H90      H        0.90480    0.44340    0.81350    1.000
    C159     C        0.85590    0.41640    0.70320    1.000
    C160     C        0.78760    0.39240    0.65530    1.000
    H91      H        0.78870    0.38250    0.60340    1.000
    C161     C        0.71740    0.38300    0.68490    1.000
    H92      H        0.67050    0.36780    0.65260    1.000
    C162     C        0.94630    0.51780    0.65280    1.000
    C163     C        0.98620    0.55730    0.71230    1.000
    H93      H        0.01050    0.53810    0.75930    1.000
    C164     C        0.98990    0.62540    0.70150    1.000
    H94      H        0.01850    0.65190    0.74090    1.000
    C165     C        0.95100    0.65510    0.63200    1.000
    C166     C        0.90790    0.61350    0.57400    1.000
    H95      H        0.88010    0.63260    0.52820    1.000
    C167     C        0.90590    0.54690    0.58300    1.000
    H96      H        0.87790    0.52010    0.54350    1.000
    C168     C        0.95760    0.72900    0.62340    1.000
