# CIF file generated by openbabel 3.1.0, see https://openbabel.org
data_I
_chemical_name_common 'image0'
_cell_length_a 11.6884
_cell_length_b 5.5643
_cell_length_c 22.8159
_cell_angle_alpha 90
_cell_angle_beta 100.691
_cell_angle_gamma 90
_space_group_name_H-M_alt 'P 1'
_space_group_name_Hall 'P 1'
loop_
    _symmetry_equiv_pos_as_xyz
    x,y,z
loop_
    _atom_site_label
    _atom_site_type_symbol
    _atom_site_fract_x
    _atom_site_fract_y
    _atom_site_fract_z
    _atom_site_occupancy
    Ca1      Ca       0.86258    0.75633    0.27818    1.000
    S1       S        0.10145    0.96454    0.39330    1.000
    O1       O        0.23970    0.91505    0.69092    1.000
    O2       O        0.23621    0.52343    0.67212    1.000
    O3       O        0.54211    0.91879    0.24461    1.000
    O4       O        0.51296    0.52383    0.25348    1.000
    O5       O        0.08446    0.22059    0.38950    1.000
    O6       O        0.00494    0.80562    0.37030    1.000
    C1       C        0.14670    0.89090    0.46929    1.000
    C2       C        0.20595    0.06200    0.50775    1.000
    H1       H        0.22780    0.21110    0.49280    1.000
    C3       C        0.23276    0.01220    0.56837    1.000
    H2       H        0.27220    0.12830    0.59530    1.000
    C4       C        0.20170    0.79140    0.58960    1.000
    C5       C        0.14677    0.61880    0.55025    1.000
    H3       H        0.12870    0.46630    0.56490    1.000
    C6       C        0.11802    0.66700    0.48962    1.000
    H4       H        0.07960    0.54990    0.46260    1.000
    C7       C        0.22619    0.73840    0.65525    1.000
    C8       C        0.21873    0.89080    0.35811    1.000
    C9       C        0.30779    0.05910    0.35955    1.000
    H5       H        0.30710    0.20510    0.38110    1.000
    C10      C        0.39763    0.00980    0.32897    1.000
    H6       H        0.45760    0.12450    0.32850    1.000
    C11      C        0.39952    0.79180    0.29902    1.000
    C12      C        0.31163    0.62320    0.29972    1.000
    H7       H        0.31460    0.47320    0.28010    1.000
    C13      C        0.21940    0.67210    0.32884    1.000
    H8       H        0.15860    0.55880    0.32870    1.000
    C14      C        0.49352    0.74100    0.26289    1.000
    Ca2      Ca       0.63742    0.25633    0.22182    1.000
    S2       S        0.39855    0.46454    0.10670    1.000
    O7       O        0.26030    0.41505    0.80908    1.000
    O8       O        0.26379    0.02343    0.82788    1.000
    O9       O        0.95789    0.41879    0.25539    1.000
    O10      O        0.98704    0.02383    0.24652    1.000
    O11      O        0.41554    0.72059    0.11050    1.000
    O12      O        0.49506    0.30562    0.12970    1.000
    C15      C        0.35330    0.39090    0.03071    1.000
    C16      C        0.29405    0.56200    0.99225    1.000
    H9       H        0.27220    0.71110    0.00720    1.000
    C17      C        0.26724    0.51220    0.93163    1.000
    H10      H        0.22780    0.62830    0.90470    1.000
    C18      C        0.29830    0.29140    0.91040    1.000
    C19      C        0.35323    0.11880    0.94975    1.000
    H11      H        0.37130    0.96630    0.93510    1.000
    C20      C        0.38198    0.16700    0.01038    1.000
    H12      H        0.42040    0.04990    0.03740    1.000
    C21      C        0.27381    0.23840    0.84475    1.000
    C22      C        0.28127    0.39080    0.14189    1.000
    C23      C        0.19221    0.55910    0.14045    1.000
    H13      H        0.19290    0.70510    0.11890    1.000
    C24      C        0.10237    0.50980    0.17103    1.000
    H14      H        0.04240    0.62450    0.17150    1.000
    C25      C        0.10048    0.29180    0.20098    1.000
    C26      C        0.18837    0.12320    0.20028    1.000
    H15      H        0.18540    0.97320    0.21990    1.000
    C27      C        0.28060    0.17210    0.17116    1.000
    H16      H        0.34140    0.05880    0.17130    1.000
    C28      C        0.00648    0.24100    0.23711    1.000
    Ca3      Ca       0.13742    0.24367    0.72182    1.000
    S3       S        0.89855    0.03546    0.60670    1.000
    O13      O        0.76030    0.08495    0.30908    1.000
    O14      O        0.76379    0.47657    0.32788    1.000
    O15      O        0.45789    0.08121    0.75539    1.000
    O16      O        0.48704    0.47617    0.74652    1.000
    O17      O        0.91554    0.77941    0.61050    1.000
    O18      O        0.99506    0.19438    0.62970    1.000
    C29      C        0.85330    0.10910    0.53071    1.000
    C30      C        0.79405    0.93800    0.49225    1.000
    H17      H        0.77220    0.78890    0.50720    1.000
    C31      C        0.76724    0.98780    0.43163    1.000
    H18      H        0.72780    0.87170    0.40470    1.000
    C32      C        0.79830    0.20860    0.41040    1.000
    C33      C        0.85323    0.38120    0.44975    1.000
    H19      H        0.87130    0.53370    0.43510    1.000
    C34      C        0.88198    0.33300    0.51038    1.000
    H20      H        0.92040    0.45010    0.53740    1.000
    C35      C        0.77381    0.26160    0.34475    1.000
    C36      C        0.78127    0.10920    0.64189    1.000
    C37      C        0.69221    0.94090    0.64045    1.000
    H21      H        0.69290    0.79490    0.61890    1.000
    C38      C        0.60237    0.99020    0.67103    1.000
    H22      H        0.54240    0.87550    0.67150    1.000
    C39      C        0.60048    0.20820    0.70098    1.000
    C40      C        0.68837    0.37680    0.70028    1.000
    H23      H        0.68540    0.52680    0.71990    1.000
    C41      C        0.78060    0.32790    0.67116    1.000
    H24      H        0.84140    0.44120    0.67130    1.000
    C42      C        0.50648    0.25900    0.73711    1.000
    Ca4      Ca       0.36258    0.74367    0.77818    1.000
    S4       S        0.60145    0.53546    0.89330    1.000
    O19      O        0.73970    0.58495    0.19092    1.000
    O20      O        0.73621    0.97657    0.17212    1.000
    O21      O        0.04211    0.58121    0.74461    1.000
    O22      O        0.01296    0.97617    0.75348    1.000
    O23      O        0.58446    0.27941    0.88950    1.000
    O24      O        0.50494    0.69438    0.87030    1.000
    C43      C        0.64670    0.60910    0.96929    1.000
    C44      C        0.70595    0.43800    0.00775    1.000
    H25      H        0.72780    0.28890    0.99280    1.000
    C45      C        0.73276    0.48780    0.06837    1.000
    H26      H        0.77220    0.37170    0.09530    1.000
    C46      C        0.70170    0.70860    0.08960    1.000
    C47      C        0.64677    0.88120    0.05025    1.000
    H27      H        0.62870    0.03370    0.06490    1.000
    C48      C        0.61802    0.83300    0.98962    1.000
    H28      H        0.57960    0.95010    0.96260    1.000
    C49      C        0.72619    0.76160    0.15525    1.000
    C50      C        0.71873    0.60920    0.85811    1.000
    C51      C        0.80779    0.44090    0.85955    1.000
    H29      H        0.80710    0.29490    0.88110    1.000
    C52      C        0.89763    0.49020    0.82897    1.000
    H30      H        0.95760    0.37550    0.82850    1.000
    C53      C        0.89952    0.70820    0.79902    1.000
    C54      C        0.81163    0.87680    0.79972    1.000
    H31      H        0.81460    0.02680    0.78010    1.000
    C55      C        0.71940    0.82790    0.82884    1.000
    H32      H        0.65860    0.94120    0.82870    1.000
    C56      C        0.99352    0.75900    0.76289    1.000
