# CIF file generated by openbabel 3.1.0, see https://openbabel.org
data_I
_chemical_name_common 'image0'
_cell_length_a 25.866
_cell_length_b 25.866
_cell_length_c 6.8457
_cell_angle_alpha 90
_cell_angle_beta 90
_cell_angle_gamma 120
_space_group_name_H-M_alt 'P 1'
_space_group_name_Hall 'P 1'
loop_
    _symmetry_equiv_pos_as_xyz
    x,y,z
loop_
    _atom_site_label
    _atom_site_type_symbol
    _atom_site_fract_x
    _atom_site_fract_y
    _atom_site_fract_z
    _atom_site_occupancy
    Co1      Co       0.97041    0.61787    0.14301    1.000
    O1       O        0.02201    0.60776    0.33840    1.000
    O2       O        0.99381    0.62945    0.69610    1.000
    O3       O        0.96838    0.56260    0.93220    1.000
    C1       C        0.01033    0.55561    0.42280    1.000
    C2       C        0.99415    0.54070    0.62150    1.000
    C3       C        0.98405    0.48547    0.69270    1.000
    H1       H        0.97290    0.47580    0.82560    1.000
    C4       C        0.98494    0.57941    0.76030    1.000
    Co2      Co       0.63708    0.95120    0.47634    1.000
    O4       O        0.68868    0.94109    0.67173    1.000
    O5       O        0.66048    0.96278    0.02943    1.000
    O6       O        0.63505    0.89593    0.26553    1.000
    C5       C        0.67700    0.88894    0.75613    1.000
    C6       C        0.66082    0.87403    0.95483    1.000
    C7       C        0.65072    0.81880    0.02603    1.000
    H2       H        0.63957    0.80913    0.15893    1.000
    C8       C        0.65161    0.91274    0.09363    1.000
    Co3      Co       0.30374    0.28454    0.80968    1.000
    O7       O        0.35534    0.27443    0.00507    1.000
    O8       O        0.32714    0.29612    0.36277    1.000
    O9       O        0.30171    0.22927    0.59887    1.000
    C9       C        0.34366    0.22228    0.08947    1.000
    C10      C        0.32748    0.20737    0.28817    1.000
    C11      C        0.31738    0.15214    0.35937    1.000
    H3       H        0.30623    0.14247    0.49227    1.000
    C12      C        0.31827    0.24608    0.42697    1.000
    Co4      Co       0.38213    0.35254    0.14301    1.000
    O10      O        0.39224    0.41425    0.33840    1.000
    O11      O        0.37055    0.36436    0.69610    1.000
    O12      O        0.43740    0.40578    0.93220    1.000
    C13      C        0.44439    0.45472    0.42280    1.000
    C14      C        0.45930    0.45345    0.62150    1.000
    C15      C        0.51453    0.49858    0.69270    1.000
    H4       H        0.52420    0.49710    0.82560    1.000
    C16      C        0.42059    0.40553    0.76030    1.000
    Co5      Co       0.04880    0.68587    0.47634    1.000
    O13      O        0.05891    0.74758    0.67173    1.000
    O14      O        0.03722    0.69769    0.02943    1.000
    O15      O        0.10407    0.73911    0.26553    1.000
    C17      C        0.11106    0.78805    0.75613    1.000
    C18      C        0.12597    0.78678    0.95483    1.000
    C19      C        0.18120    0.83191    0.02603    1.000
    H5       H        0.19087    0.83043    0.15893    1.000
    C20      C        0.08726    0.73886    0.09363    1.000
    Co6      Co       0.71546    0.01921    0.80968    1.000
    O16      O        0.72557    0.08092    0.00507    1.000
    O17      O        0.70388    0.03103    0.36277    1.000
    O18      O        0.77073    0.07245    0.59887    1.000
    C21      C        0.77772    0.12139    0.08947    1.000
    C22      C        0.79263    0.12012    0.28817    1.000
    C23      C        0.84786    0.16525    0.35937    1.000
    H6       H        0.85753    0.16377    0.49227    1.000
    C24      C        0.75392    0.07220    0.42697    1.000
    Co7      Co       0.64746    0.02959    0.14301    1.000
    O19      O        0.58575    0.97799    0.33840    1.000
    O20      O        0.63564    0.00619    0.69610    1.000
    O21      O        0.59422    0.03162    0.93220    1.000
    C25      C        0.54528    0.98967    0.42280    1.000
    C26      C        0.54655    0.00585    0.62150    1.000
    C27      C        0.50142    0.01595    0.69270    1.000
    H7       H        0.50290    0.02710    0.82560    1.000
    C28      C        0.59447    0.01506    0.76030    1.000
    Co8      Co       0.31413    0.36292    0.47634    1.000
    O22      O        0.25242    0.31132    0.67173    1.000
    O23      O        0.30231    0.33952    0.02943    1.000
    O24      O        0.26089    0.36495    0.26553    1.000
    C29      C        0.21195    0.32300    0.75613    1.000
    C30      C        0.21322    0.33918    0.95483    1.000
    C31      C        0.16809    0.34928    0.02603    1.000
    H8       H        0.16957    0.36043    0.15893    1.000
    C32      C        0.26114    0.34839    0.09363    1.000
    Co9      Co       0.98079    0.69626    0.80968    1.000
    O25      O        0.91908    0.64466    0.00507    1.000
    O26      O        0.96897    0.67286    0.36277    1.000
    O27      O        0.92755    0.69829    0.59887    1.000
    C33      C        0.87861    0.65634    0.08947    1.000
    C34      C        0.87988    0.67252    0.28817    1.000
    C35      C        0.83475    0.68262    0.35937    1.000
    H9       H        0.83623    0.69377    0.49227    1.000
    C36      C        0.92780    0.68173    0.42697    1.000
    Co10     Co       0.02959    0.38213    0.85699    1.000
    O28      O        0.97799    0.39224    0.66160    1.000
    O29      O        0.00619    0.37055    0.30390    1.000
    O30      O        0.03162    0.43740    0.06780    1.000
    C37      C        0.98967    0.44439    0.57720    1.000
    C38      C        0.00585    0.45930    0.37850    1.000
    C39      C        0.01595    0.51453    0.30730    1.000
    H10      H        0.02710    0.52420    0.17440    1.000
    C40      C        0.01506    0.42059    0.23970    1.000
    Co11     Co       0.69626    0.71546    0.19032    1.000
    O31      O        0.64466    0.72557    0.99493    1.000
    O32      O        0.67286    0.70388    0.63723    1.000
    O33      O        0.69829    0.77073    0.40113    1.000
    C41      C        0.65634    0.77772    0.91053    1.000
    C42      C        0.67252    0.79263    0.71183    1.000
    C43      C        0.68262    0.84786    0.64063    1.000
    H11      H        0.69377    0.85753    0.50773    1.000
    C44      C        0.68173    0.75392    0.57303    1.000
    Co12     Co       0.36292    0.04880    0.52366    1.000
    O34      O        0.31132    0.05891    0.32827    1.000
    O35      O        0.33952    0.03722    0.97057    1.000
    O36      O        0.36495    0.10407    0.73447    1.000
    C45      C        0.32300    0.11106    0.24387    1.000
    C46      C        0.33918    0.12597    0.04517    1.000
    C47      C        0.34928    0.18120    0.97397    1.000
    H12      H        0.36043    0.19087    0.84107    1.000
    C48      C        0.34839    0.08726    0.90637    1.000
    Co13     Co       0.61787    0.64746    0.85699    1.000
    O37      O        0.60776    0.58575    0.66160    1.000
    O38      O        0.62945    0.63564    0.30390    1.000
    O39      O        0.56260    0.59422    0.06780    1.000
    C49      C        0.55561    0.54528    0.57720    1.000
    C50      C        0.54070    0.54655    0.37850    1.000
    C51      C        0.48547    0.50142    0.30730    1.000
    H13      H        0.47580    0.50290    0.17440    1.000
    C52      C        0.57941    0.59447    0.23970    1.000
    Co14     Co       0.28454    0.98079    0.19032    1.000
    O40      O        0.27443    0.91908    0.99493    1.000
    O41      O        0.29612    0.96897    0.63723    1.000
    O42      O        0.22927    0.92755    0.40113    1.000
    C53      C        0.22228    0.87861    0.91053    1.000
    C54      C        0.20737    0.87988    0.71183    1.000
    C55      C        0.15214    0.83475    0.64063    1.000
    H14      H        0.14247    0.83623    0.50773    1.000
    C56      C        0.24608    0.92780    0.57303    1.000
    Co15     Co       0.95120    0.31413    0.52366    1.000
    O43      O        0.94109    0.25242    0.32827    1.000
    O44      O        0.96278    0.30231    0.97057    1.000
    O45      O        0.89593    0.26089    0.73447    1.000
    C57      C        0.88894    0.21195    0.24387    1.000
    C58      C        0.87403    0.21322    0.04517    1.000
    C59      C        0.81880    0.16809    0.97397    1.000
    H15      H        0.80913    0.16957    0.84107    1.000
    C60      C        0.91274    0.26114    0.90637    1.000
    Co16     Co       0.35254    0.97041    0.85699    1.000
    O46      O        0.41425    0.02201    0.66160    1.000
    O47      O        0.36436    0.99381    0.30390    1.000
    O48      O        0.40578    0.96838    0.06780    1.000
    C61      C        0.45472    0.01033    0.57720    1.000
    C62      C        0.45345    0.99415    0.37850    1.000
    C63      C        0.49858    0.98405    0.30730    1.000
    H16      H        0.49710    0.97290    0.17440    1.000
    C64      C        0.40553    0.98494    0.23970    1.000
    Co17     Co       0.01921    0.30374    0.19032    1.000
    O49      O        0.08092    0.35534    0.99493    1.000
    O50      O        0.03103    0.32714    0.63723    1.000
    O51      O        0.07245    0.30171    0.40113    1.000
    C65      C        0.12139    0.34366    0.91053    1.000
    C66      C        0.12012    0.32748    0.71183    1.000
    C67      C        0.16525    0.31738    0.64063    1.000
    H17      H        0.16377    0.30623    0.50773    1.000
    C68      C        0.07220    0.31827    0.57303    1.000
    Co18     Co       0.68587    0.63708    0.52366    1.000
    O52      O        0.74758    0.68868    0.32827    1.000
    O53      O        0.69769    0.66048    0.97057    1.000
    O54      O        0.73911    0.63505    0.73447    1.000
    C69      C        0.78805    0.67700    0.24387    1.000
    C70      C        0.78678    0.66082    0.04517    1.000
    C71      C        0.83191    0.65072    0.97397    1.000
    H18      H        0.83043    0.63957    0.84107    1.000
    C72      C        0.73886    0.65161    0.90637    1.000
