# CIF file generated by openbabel 3.1.0, see https://openbabel.org
data_I
_chemical_name_common 'image0'
_cell_length_a 14.589
_cell_length_b 15.285
_cell_length_c 22.758
_cell_angle_alpha 84.679
_cell_angle_beta 84.323
_cell_angle_gamma 86.396
_space_group_name_H-M_alt 'P 1'
_space_group_name_Hall 'P 1'
loop_
    _symmetry_equiv_pos_as_xyz
    x,y,z
loop_
    _atom_site_label
    _atom_site_type_symbol
    _atom_site_fract_x
    _atom_site_fract_y
    _atom_site_fract_z
    _atom_site_occupancy
    C1       C        0.07840    0.68150    0.18690    1.000
    H1       H        0.09490    0.73430    0.19910    1.000
    O1       O        0.09860    0.75000    0.68720    1.000
    O2       O        0.14460    0.62370    0.73990    1.000
    C2       C        0.09250    0.67080    0.70180    1.000
    C3       C        0.02710    0.62090    0.67890    1.000
    C4       C        0.95700    0.66720    0.64800    1.000
    H2       H        0.95800    0.72790    0.64000    1.000
    C5       C        0.02820    0.53110    0.68940    1.000
    H3       H        0.07390    0.50070    0.71010    1.000
    C6       C        0.88790    0.62300    0.63010    1.000
    H4       H        0.84080    0.65310    0.61050    1.000
    C7       C        0.96050    0.48690    0.66880    1.000
    H5       H        0.96350    0.42570    0.67330    1.000
    O3       O        0.82990    0.70490    0.23140    1.000
    O4       O        0.94020    0.79510    0.23670    1.000
    C8       C        0.91360    0.72040    0.22330    1.000
    C9       C        0.98650    0.65970    0.19490    1.000
    C10      C        0.96090    0.58330    0.17640    1.000
    H6       H        0.89960    0.56870    0.18120    1.000
    C11      C        0.03030    0.52660    0.14960    1.000
    H7       H        0.01490    0.47400    0.13660    1.000
    O5       O        0.98420    0.09340    0.24780    1.000
    O6       O        0.89050    0.99910    0.21910    1.000
    C12      C        0.97520    0.03330    0.21630    1.000
    C13      C        0.04960    0.99710    0.17420    1.000
    C14      C        0.03240    0.93930    0.13240    1.000
    H8       H        0.97360    0.91960    0.13140    1.000
    C15      C        0.13850    0.02380    0.17590    1.000
    H9       H        0.15050    0.05990    0.20460    1.000
    C16      C        0.20770    0.99800    0.13630    1.000
    H10      H        0.26650    0.01830    0.13640    1.000
    C17      C        0.10240    0.91280    0.09370    1.000
    H11      H        0.09170    0.87520    0.06550    1.000
    O7       O        0.68350    0.98010    0.20130    1.000
    O8       O        0.68640    0.10120    0.24220    1.000
    C18      C        0.64920    0.05940    0.20820    1.000
    C19      C        0.57130    0.08910    0.17800    1.000
    C20      C        0.53460    0.17680    0.18800    1.000
    H12      H        0.56310    0.21080    0.21190    1.000
    O9       O        0.66830    0.80040    0.29170    1.000
    O10      O        0.57220    0.69720    0.31820    1.000
    C21      C        0.59230    0.77560    0.31710    1.000
    C22      C        0.52310    0.84290    0.34290    1.000
    C23      C        0.43990    0.81610    0.37180    1.000
    H13      H        0.42670    0.75700    0.37760    1.000
    C24      C        0.45950    0.20850    0.16290    1.000
    H14      H        0.43210    0.26290    0.17170    1.000
    O11      O        0.74390    0.54850    0.28630    1.000
    O12      O        0.68030    0.43360    0.33840    1.000
    C25      C        0.70840    0.50900    0.33620    1.000
    Eu1      Eu       0.17849    0.87216    0.71523    1.000
    Eu2      Eu       0.32717    0.33367    0.77222    1.000
    Eu3      Eu       0.20615    0.12089    0.75749    1.000
    Eu4      Eu       0.28959    0.59951    0.76387    1.000
    C26      C        0.22640    0.75940    0.84770    1.000
    C27      C        0.43020    0.75300    0.62750    1.000
    C28      C        0.21420    0.07660    0.63730    1.000
    C29      C        0.24210    0.06650    0.57400    1.000
    C30      C        0.27120    0.17220    0.93440    1.000
    C31      C        0.19660    0.10640    0.52800    1.000
    H15      H        0.14530    0.14380    0.53680    1.000
    C32      C        0.19350    0.88680    0.91530    1.000
    H16      H        0.16050    0.91850    0.88660    1.000
    C33      C        0.33650    0.77290    0.65910    1.000
    C34      C        0.32010    0.18460    0.04540    1.000
    C35      C        0.38940    0.18710    0.99970    1.000
    H17      H        0.45060    0.19270    0.00630    1.000
    C36      C        0.36340    0.18080    0.94390    1.000
    H18      H        0.40810    0.18230    0.91180    1.000
    C37      C        0.22290    0.09390    0.46940    1.000
    H19      H        0.18840    0.12030    0.43980    1.000
    C38      C        0.20360    0.16940    0.98160    1.000
    H20      H        0.14200    0.16340    0.97610    1.000
    C39      C        0.68970    0.65060    0.48960    1.000
    C40      C        0.30020    0.04220    0.45550    1.000
    C41      C        0.70470    0.55640    0.38900    1.000
    C42      C        0.20150    0.92240    0.96590    1.000
    H21      H        0.17390    0.97770    0.97220    1.000
    C43      C        0.64180    0.53600    0.75050    1.000
    H22      H        0.63450    0.56570    0.78470    1.000
    C44      C        0.50370    0.71550    0.65680    1.000
    H23      H        0.49500    0.70150    0.69750    1.000
    C45      C        0.47430    0.52170    0.76620    1.000
    O13      O        0.23640    0.50380    0.84470    1.000
    C46      C        0.31730    0.01290    0.55990    1.000
    H24      H        0.34800    0.98240    0.59010    1.000
    C47      C        0.64610    0.53210    0.43960    1.000
    H25      H        0.61260    0.48220    0.44030    1.000
    C48      C        0.75100    0.67220    0.44360    1.000
    H26      H        0.78930    0.71790    0.44570    1.000
    C49      C        0.75850    0.62720    0.39270    1.000
    H27      H        0.80000    0.64490    0.36080    1.000
    C50      C        0.39300    0.96900    0.38090    1.000
    C51      C        0.47190    0.99450    0.35130    1.000
    H28      H        0.48220    0.05410    0.34370    1.000
    C52      C        0.23140    0.17560    0.03600    1.000
    H29      H        0.18730    0.17350    0.06850    1.000
    C53      C        0.44700    0.77480    0.56610    1.000
    H30      H        0.40060    0.80430    0.54560    1.000
    C54      C        0.23280    0.80410    0.90390    1.000
    C55      C        0.60360    0.71660    0.56630    1.000
    C56      C        0.57820    0.45830    0.68200    1.000
    H31      H        0.52820    0.43180    0.67020    1.000
    C57      C        0.28560    0.76090    0.94580    1.000
    H32      H        0.31520    0.70670    0.93860    1.000
    C58      C        0.24860    0.87880    0.00680    1.000
    C59      C        0.34980    0.00230    0.50040    1.000
    H33      H        0.40400    0.96890    0.49140    1.000
    C60      C        0.56640    0.50020    0.73110    1.000
    C61      C        0.63670    0.58000    0.48870    1.000
    H34      H        0.59460    0.56450    0.52080    1.000
    C62      C        0.58950    0.69810    0.62740    1.000
    H35      H        0.63780    0.67410    0.64850    1.000
    C63      C        0.42290    0.16060    0.12400    1.000
    C64      C        0.29500    0.79650    0.99770    1.000
    H36      H        0.33070    0.76760    0.02600    1.000
    C65      C        0.37750    0.88120    0.39160    1.000
    H37      H        0.32270    0.86470    0.41300    1.000
    O14      O        0.23650    0.02160    0.67630    1.000
    O15      O        0.31670    0.73510    0.71010    1.000
    O16      O        0.16520    0.14650    0.65180    1.000
    O17      O        0.30020    0.19560    0.82780    1.000
    O18      O        0.17220    0.13400    0.86520    1.000
    O19      O        0.26810    0.69290    0.83830    1.000
    O20      O        0.28220    0.82970    0.63420    1.000
    O21      O        0.17000    0.80020    0.81360    1.000
    O22      O        0.29540    0.37550    0.86750    1.000
    C66      C        0.24740    0.16960    0.87470    1.000
    O23      O        0.34160    0.19520    0.10170    1.000
    O24      O        0.68830    0.69700    0.53790    1.000
    O25      O        0.26440    0.91610    0.05890    1.000
    O26      O        0.32550    0.03350    0.39750    1.000
    O27      O        0.41280    0.46680    0.76250    1.000
    C67      C        0.26210    0.44420    0.88290    1.000
    C68      C        0.23620    0.46070    0.94460    1.000
    O28      O        0.45180    0.59340    0.78580    1.000
    C69      C        0.53510    0.04800    0.13900    1.000
    H38      H        0.56230    0.99360    0.13010    1.000
    C70      C        0.46050    0.07900    0.11050    1.000
    H39      H        0.43620    0.04700    0.08350    1.000
    C71      C        0.66080    0.45240    0.64830    1.000
    H40      H        0.66630    0.42330    0.61390    1.000
    C72      C        0.73440    0.48930    0.66530    1.000
    C73      C        0.53990    0.93110    0.33140    1.000
    H41      H        0.59500    0.94850    0.31090    1.000
    C74      C        0.18980    0.94140    0.09580    1.000
    C75      C        0.72980    0.52790    0.71870    1.000
    H42      H        0.78210    0.54730    0.73280    1.000
    C76      C        0.18700    0.53040    0.96310    1.000
    H43      H        0.16240    0.57070    0.93490    1.000
    O29      O        0.81520    0.48450    0.62740    1.000
    C77      C        0.88930    0.52970    0.64210    1.000
    C78      C        0.19940    0.48330    0.06270    1.000
    C79      C        0.25610    0.41500    0.04390    1.000
    H44      H        0.28420    0.37630    0.07160    1.000
    C80      C        0.53250    0.75320    0.53490    1.000
    H45      H        0.54080    0.76340    0.49380    1.000
    C81      C        0.27180    0.40290    0.98700    1.000
    H46      H        0.30800    0.35400    0.97550    1.000
    O30      O        0.18890    0.49200    0.12230    1.000
    C82      C        0.12040    0.54990    0.14300    1.000
    C83      C        0.14560    0.62500    0.16090    1.000
    H47      H        0.20710    0.63920    0.15600    1.000
    C84      C        0.17030    0.54660    0.02180    1.000
    H48      H        0.14030    0.59880    0.03300    1.000
    C85      C        0.92160    0.31850    0.81310    1.000
    H49      H        0.90510    0.26570    0.80090    1.000
    O31      O        0.90140    0.25000    0.31280    1.000
    O32      O        0.85540    0.37630    0.26010    1.000
    C86      C        0.90750    0.32920    0.29820    1.000
    C87      C        0.97290    0.37910    0.32110    1.000
    C88      C        0.04300    0.33280    0.35200    1.000
    H50      H        0.04200    0.27210    0.36000    1.000
    C89      C        0.97180    0.46890    0.31060    1.000
    H51      H        0.92610    0.49930    0.28990    1.000
    C90      C        0.11210    0.37700    0.36990    1.000
    H52      H        0.15920    0.34690    0.38950    1.000
    C91      C        0.03950    0.51310    0.33120    1.000
    H53      H        0.03650    0.57430    0.32670    1.000
    O33      O        0.17010    0.29510    0.76860    1.000
    O34      O        0.05980    0.20490    0.76330    1.000
    C92      C        0.08640    0.27960    0.77670    1.000
    C93      C        0.01350    0.34030    0.80510    1.000
    C94      C        0.03910    0.41670    0.82360    1.000
    H54      H        0.10040    0.43130    0.81880    1.000
    C95      C        0.96970    0.47340    0.85040    1.000
    H55      H        0.98510    0.52600    0.86340    1.000
    O35      O        0.01580    0.90660    0.75220    1.000
    O36      O        0.10950    0.00090    0.78090    1.000
    C96      C        0.02480    0.96670    0.78370    1.000
    C97      C        0.95040    0.00290    0.82580    1.000
    C98      C        0.96760    0.06070    0.86760    1.000
    H56      H        0.02640    0.08040    0.86860    1.000
    C99      C        0.86150    0.97620    0.82410    1.000
    H57      H        0.84950    0.94010    0.79540    1.000
    C100     C        0.79230    0.00200    0.86370    1.000
    H58      H        0.73350    0.98170    0.86360    1.000
    C101     C        0.89760    0.08720    0.90630    1.000
    H59      H        0.90830    0.12480    0.93450    1.000
    O37      O        0.31650    0.01990    0.79870    1.000
    O38      O        0.31360    0.89880    0.75780    1.000
    C102     C        0.35080    0.94060    0.79180    1.000
    C103     C        0.42870    0.91090    0.82200    1.000
    C104     C        0.46540    0.82320    0.81200    1.000
    H60      H        0.43690    0.78920    0.78810    1.000
    O39      O        0.33170    0.19960    0.70830    1.000
    O40      O        0.42780    0.30280    0.68180    1.000
    C105     C        0.40770    0.22440    0.68290    1.000
    C106     C        0.47690    0.15710    0.65710    1.000
    C107     C        0.56010    0.18390    0.62820    1.000
    H61      H        0.57330    0.24300    0.62240    1.000
    C108     C        0.54050    0.79150    0.83710    1.000
    H62      H        0.56790    0.73710    0.82830    1.000
    O41      O        0.25610    0.45150    0.71370    1.000
    O42      O        0.31970    0.56640    0.66160    1.000
    C109     C        0.29160    0.49100    0.66380    1.000
    Eu5      Eu       0.82151    0.12784    0.28477    1.000
    Eu6      Eu       0.67283    0.66633    0.22778    1.000
    Eu7      Eu       0.79385    0.87911    0.24251    1.000
    Eu8      Eu       0.71041    0.40049    0.23613    1.000
    C110     C        0.77360    0.24060    0.15230    1.000
    C111     C        0.56980    0.24700    0.37250    1.000
    C112     C        0.78580    0.92340    0.36270    1.000
    C113     C        0.75790    0.93350    0.42600    1.000
    C114     C        0.72880    0.82780    0.06560    1.000
    C115     C        0.80340    0.89360    0.47200    1.000
    H63      H        0.85470    0.85620    0.46320    1.000
    C116     C        0.80650    0.11320    0.08470    1.000
    H64      H        0.83950    0.08150    0.11340    1.000
    C117     C        0.66350    0.22710    0.34090    1.000
    C118     C        0.67990    0.81540    0.95460    1.000
    C119     C        0.61060    0.81290    0.00030    1.000
    H65      H        0.54940    0.80730    0.99370    1.000
    C120     C        0.63660    0.81920    0.05610    1.000
    H66      H        0.59190    0.81770    0.08820    1.000
    C121     C        0.77710    0.90610    0.53060    1.000
    H67      H        0.81160    0.87970    0.56020    1.000
    C122     C        0.79640    0.83060    0.01840    1.000
    H68      H        0.85800    0.83660    0.02390    1.000
    C123     C        0.31030    0.34940    0.51040    1.000
    C124     C        0.69980    0.95780    0.54450    1.000
    C125     C        0.29530    0.44360    0.61100    1.000
    C126     C        0.79850    0.07760    0.03410    1.000
    H69      H        0.82610    0.02230    0.02780    1.000
    C127     C        0.35820    0.46400    0.24950    1.000
    H70      H        0.36550    0.43430    0.21530    1.000
    C128     C        0.49630    0.28450    0.34320    1.000
    H71      H        0.50500    0.29850    0.30250    1.000
    C129     C        0.52570    0.47830    0.23380    1.000
    O43      O        0.76360    0.49620    0.15530    1.000
    C130     C        0.68270    0.98710    0.44010    1.000
    H72      H        0.65200    0.01760    0.40990    1.000
    C131     C        0.35390    0.46790    0.56040    1.000
    H73      H        0.38740    0.51780    0.55970    1.000
    C132     C        0.24900    0.32780    0.55640    1.000
    H74      H        0.21070    0.28210    0.55430    1.000
    C133     C        0.24150    0.37280    0.60730    1.000
    H75      H        0.20000    0.35510    0.63920    1.000
    C134     C        0.60700    0.03100    0.61910    1.000
    C135     C        0.52810    0.00550    0.64870    1.000
    H76      H        0.51780    0.94590    0.65630    1.000
    C136     C        0.76860    0.82440    0.96400    1.000
    H77      H        0.81270    0.82650    0.93150    1.000
    C137     C        0.55300    0.22520    0.43390    1.000
    H78      H        0.59940    0.19570    0.45440    1.000
    C138     C        0.76720    0.19590    0.09610    1.000
    C139     C        0.39640    0.28340    0.43370    1.000
    C140     C        0.42180    0.54170    0.31800    1.000
    H79      H        0.47180    0.56820    0.32980    1.000
    C141     C        0.71440    0.23910    0.05420    1.000
    H80      H        0.68480    0.29330    0.06140    1.000
    C142     C        0.75140    0.12120    0.99320    1.000
    C143     C        0.65020    0.99770    0.49960    1.000
    H81      H        0.59600    0.03110    0.50860    1.000
    C144     C        0.43360    0.49980    0.26890    1.000
    C145     C        0.36330    0.42000    0.51130    1.000
    H82      H        0.40540    0.43550    0.47920    1.000
    C146     C        0.41050    0.30190    0.37260    1.000
    H83      H        0.36220    0.32590    0.35150    1.000
    C147     C        0.57710    0.83940    0.87600    1.000
    C148     C        0.70500    0.20350    0.00230    1.000
    H84      H        0.66930    0.23240    0.97400    1.000
    C149     C        0.62250    0.11880    0.60840    1.000
    H85      H        0.67730    0.13530    0.58700    1.000
    O44      O        0.76350    0.97840    0.32370    1.000
    O45      O        0.68330    0.26490    0.28990    1.000
    O46      O        0.83480    0.85350    0.34820    1.000
    O47      O        0.69980    0.80440    0.17220    1.000
    O48      O        0.82780    0.86600    0.13480    1.000
    O49      O        0.73190    0.30710    0.16170    1.000
    O50      O        0.71780    0.17030    0.36580    1.000
    O51      O        0.83000    0.19980    0.18640    1.000
    O52      O        0.70460    0.62450    0.13250    1.000
    C150     C        0.75260    0.83040    0.12530    1.000
    O53      O        0.65840    0.80480    0.89830    1.000
    O54      O        0.31170    0.30300    0.46210    1.000
    O55      O        0.73560    0.08390    0.94110    1.000
    O56      O        0.67450    0.96650    0.60250    1.000
    O57      O        0.58720    0.53320    0.23750    1.000
    C151     C        0.73790    0.55580    0.11710    1.000
    C152     C        0.76380    0.53930    0.05540    1.000
    O58      O        0.54820    0.40660    0.21420    1.000
    C153     C        0.46490    0.95200    0.86100    1.000
    H86      H        0.43770    0.00640    0.86990    1.000
    C154     C        0.53950    0.92100    0.88950    1.000
    H87      H        0.56380    0.95300    0.91650    1.000
    C155     C        0.33920    0.54760    0.35170    1.000
    H88      H        0.33370    0.57670    0.38610    1.000
    C156     C        0.26560    0.51070    0.33470    1.000
    C157     C        0.46010    0.06890    0.66860    1.000
    H89      H        0.40500    0.05150    0.68910    1.000
    C158     C        0.81020    0.05860    0.90420    1.000
    C159     C        0.27020    0.47210    0.28130    1.000
    H90      H        0.21790    0.45270    0.26720    1.000
    C160     C        0.81300    0.46960    0.03690    1.000
    H91      H        0.83760    0.42930    0.06510    1.000
    O59      O        0.18480    0.51550    0.37260    1.000
    C161     C        0.11070    0.47030    0.35790    1.000
    C162     C        0.80060    0.51670    0.93730    1.000
    C163     C        0.74390    0.58500    0.95610    1.000
    H92      H        0.71580    0.62370    0.92840    1.000
    C164     C        0.46750    0.24680    0.46510    1.000
    H93      H        0.45920    0.23660    0.50620    1.000
    C165     C        0.72820    0.59710    0.01300    1.000
    H94      H        0.69200    0.64600    0.02450    1.000
    O60      O        0.81110    0.50800    0.87770    1.000
    C166     C        0.87960    0.45010    0.85700    1.000
    C167     C        0.85440    0.37500    0.83910    1.000
    H95      H        0.79290    0.36080    0.84400    1.000
    C168     C        0.82970    0.45340    0.97820    1.000
    H96      H        0.85970    0.40120    0.96700    1.000
