# CIF file generated by openbabel 3.1.0, see https://openbabel.org
data_I
_chemical_name_common 'image0'
_cell_length_a 35.316
_cell_length_b 14.7247
_cell_length_c 31.766
_cell_angle_alpha 90
_cell_angle_beta 101.906
_cell_angle_gamma 90
_space_group_name_H-M_alt 'P 1'
_space_group_name_Hall 'P 1'
loop_
    _symmetry_equiv_pos_as_xyz
    x,y,z
loop_
    _atom_site_label
    _atom_site_type_symbol
    _atom_site_fract_x
    _atom_site_fract_y
    _atom_site_fract_z
    _atom_site_occupancy
    Zn1      Zn       0.37555    0.09258    0.43489    1.000
    Zn2      Zn       0.58601    0.37980    0.59489    1.000
    Zn3      Zn       0.67242    0.84858    0.27190    1.000
    I1       I        0.35492    0.08869    0.50682    1.000
    I2       I        0.39256    0.23665    0.39840    1.000
    I3       I        0.62456    0.26466    0.56265    1.000
    I4       I        0.52541    0.35057    0.62470    1.000
    I5       I        0.62825    0.83335    0.19774    1.000
    I6       I        0.73423    0.75683    0.29336    1.000
    N1       N        0.57850    0.72360    0.43848    1.000
    N2       N        0.52751    0.77270    0.47087    1.000
    N3       N        0.54096    0.85110    0.41077    1.000
    C1       C        0.55592    0.71630    0.46780    1.000
    C2       C        0.52080    0.83700    0.44100    1.000
    C3       C        0.57035    0.79400    0.41160    1.000
    N4       N        0.57445    0.48690    0.55104    1.000
    C4       C        0.60080    0.51260    0.52930    1.000
    H1       H        0.62390    0.47790    0.53240    1.000
    C5       C        0.59660    0.58720    0.50230    1.000
    H2       H        0.61660    0.60440    0.48800    1.000
    C6       C        0.56255    0.63620    0.49660    1.000
    C7       C        0.53440    0.60960    0.51920    1.000
    H3       H        0.51090    0.64270    0.51650    1.000
    C8       C        0.54130    0.53490    0.54540    1.000
    H4       H        0.52190    0.51610    0.56030    1.000
    N5       N        0.42202    0.00670    0.43839    1.000
    C9       C        0.43880    0.99750    0.40470    1.000
    H5       H        0.42730    0.02800    0.37880    1.000
    C10      C        0.47150    0.94710    0.40470    1.000
    H6       H        0.48330    0.94650    0.38040    1.000
    C11      C        0.48670    0.89750    0.44090    1.000
    C12      C        0.46940    0.90360    0.47530    1.000
    H7       H        0.47910    0.87010    0.50070    1.000
    C13      C        0.43770    0.95840    0.47280    1.000
    H8       H        0.42630    0.96200    0.49730    1.000
    N6       N        0.64059    0.83000    0.31857    1.000
    C14      C        0.65290    0.78350    0.35490    1.000
    H9       H        0.67800    0.75750    0.35960    1.000
    C15      C        0.63170    0.77100    0.38550    1.000
    H10      H        0.64220    0.73800    0.41090    1.000
    C16      C        0.59460    0.80690    0.37950    1.000
    C17      C        0.58150    0.85510    0.34200    1.000
    H11      H        0.55650    0.88180    0.33660    1.000
    C18      C        0.60490    0.86410    0.31270    1.000
    H12      H        0.59520    0.89640    0.28680    1.000
    N7       N        0.22085    0.94710    0.27377    1.000
    N8       N        0.23431    0.80720    0.31170    1.000
    N9       N        0.18096    0.81940    0.25253    1.000
    C19      C        0.19111    0.90620    0.24870    1.000
    C20      C        0.24063    0.89520    0.30580    1.000
    C21      C        0.20419    0.77240    0.28380    1.000
    N10      N        0.12291    0.05260    0.14435    1.000
    C22      C        0.11400    0.96840    0.15350    1.000
    H13      H        0.09190    0.94080    0.13610    1.000
    C23      C        0.13500    0.91930    0.18670    1.000
    H14      H        0.12760    0.85900    0.19200    1.000
    C24      C        0.16750    0.95900    0.21290    1.000
    C25      C        0.17610    0.04750    0.20440    1.000
    H15      H        0.19720    0.07780    0.22230    1.000
    C26      C        0.15370    0.09220    0.16940    1.000
    H16      H        0.16030    0.15240    0.16300    1.000
    N11      N        0.33301    0.02750    0.39121    1.000
    C27      C        0.31560    0.06590    0.35350    1.000
    H17      H        0.32430    0.12380    0.34630    1.000
    C28      C        0.28600    0.02490    0.32530    1.000
    H18      H        0.27430    0.05430    0.29930    1.000
    C29      C        0.27344    0.94040    0.33510    1.000
    C30      C        0.29120    0.89940    0.37360    1.000
    H19      H        0.28360    0.84060    0.38090    1.000
    C31      C        0.32020    0.94600    0.40080    1.000
    H20      H        0.33150    0.91910    0.42760    1.000
    N12      N        0.18407    0.48710    0.27957    1.000
    C32      C        0.21530    0.52180    0.30540    1.000
    H21      H        0.23340    0.48150    0.32220    1.000
    C33      C        0.22240    0.61300    0.30870    1.000
    H22      H        0.24480    0.63500    0.32780    1.000
    C34      C        0.19700    0.67330    0.28430    1.000
    C35      C        0.16420    0.63700    0.25770    1.000
    H23      H        0.14580    0.67570    0.24020    1.000
    C36      C        0.15850    0.54460    0.25690    1.000
    H24      H        0.13550    0.52070    0.23950    1.000
    I7       I        0.52640    0.64980    0.11840    1.000
    Zn4      Zn       0.87555    0.59258    0.43489    1.000
    Zn5      Zn       0.08601    0.87980    0.59489    1.000
    Zn6      Zn       0.17242    0.34858    0.27190    1.000
    I8       I        0.85492    0.58869    0.50682    1.000
    I9       I        0.89256    0.73665    0.39840    1.000
    I10      I        0.12456    0.76466    0.56265    1.000
    I11      I        0.02541    0.85057    0.62470    1.000
    I12      I        0.12825    0.33335    0.19774    1.000
    I13      I        0.23423    0.25683    0.29336    1.000
    N13      N        0.07850    0.22360    0.43848    1.000
    N14      N        0.02751    0.27270    0.47087    1.000
    N15      N        0.04096    0.35110    0.41077    1.000
    C37      C        0.05592    0.21630    0.46780    1.000
    C38      C        0.02080    0.33700    0.44100    1.000
    C39      C        0.07035    0.29400    0.41160    1.000
    N16      N        0.07445    0.98690    0.55104    1.000
    C40      C        0.10080    0.01260    0.52930    1.000
    H25      H        0.12390    0.97790    0.53240    1.000
    C41      C        0.09660    0.08720    0.50230    1.000
    H26      H        0.11660    0.10440    0.48800    1.000
    C42      C        0.06255    0.13620    0.49660    1.000
    C43      C        0.03440    0.10960    0.51920    1.000
    H27      H        0.01090    0.14270    0.51650    1.000
    C44      C        0.04130    0.03490    0.54540    1.000
    H28      H        0.02190    0.01610    0.56030    1.000
    N17      N        0.92202    0.50670    0.43839    1.000
    C45      C        0.93880    0.49750    0.40470    1.000
    H29      H        0.92730    0.52800    0.37880    1.000
    C46      C        0.97150    0.44710    0.40470    1.000
    H30      H        0.98330    0.44650    0.38040    1.000
    C47      C        0.98670    0.39750    0.44090    1.000
    C48      C        0.96940    0.40360    0.47530    1.000
    H31      H        0.97910    0.37010    0.50070    1.000
    C49      C        0.93770    0.45840    0.47280    1.000
    H32      H        0.92630    0.46200    0.49730    1.000
    N18      N        0.14059    0.33000    0.31857    1.000
    C50      C        0.15290    0.28350    0.35490    1.000
    H33      H        0.17800    0.25750    0.35960    1.000
    C51      C        0.13170    0.27100    0.38550    1.000
    H34      H        0.14220    0.23800    0.41090    1.000
    C52      C        0.09460    0.30690    0.37950    1.000
    C53      C        0.08150    0.35510    0.34200    1.000
    H35      H        0.05650    0.38180    0.33660    1.000
    C54      C        0.10490    0.36410    0.31270    1.000
    H36      H        0.09520    0.39640    0.28680    1.000
    N19      N        0.72085    0.44710    0.27377    1.000
    N20      N        0.73431    0.30720    0.31170    1.000
    N21      N        0.68096    0.31940    0.25253    1.000
    C55      C        0.69111    0.40620    0.24870    1.000
    C56      C        0.74063    0.39520    0.30580    1.000
    C57      C        0.70419    0.27240    0.28380    1.000
    N22      N        0.62291    0.55260    0.14435    1.000
    C58      C        0.61400    0.46840    0.15350    1.000
    H37      H        0.59190    0.44080    0.13610    1.000
    C59      C        0.63500    0.41930    0.18670    1.000
    H38      H        0.62760    0.35900    0.19200    1.000
    C60      C        0.66750    0.45900    0.21290    1.000
    C61      C        0.67610    0.54750    0.20440    1.000
    H39      H        0.69720    0.57780    0.22230    1.000
    C62      C        0.65370    0.59220    0.16940    1.000
    H40      H        0.66030    0.65240    0.16300    1.000
    N23      N        0.83301    0.52750    0.39121    1.000
    C63      C        0.81560    0.56590    0.35350    1.000
    H41      H        0.82430    0.62380    0.34630    1.000
    C64      C        0.78600    0.52490    0.32530    1.000
    H42      H        0.77430    0.55430    0.29930    1.000
    C65      C        0.77344    0.44040    0.33510    1.000
    C66      C        0.79120    0.39940    0.37360    1.000
    H43      H        0.78360    0.34060    0.38090    1.000
    C67      C        0.82020    0.44600    0.40080    1.000
    H44      H        0.83150    0.41910    0.42760    1.000
    N24      N        0.68407    0.98710    0.27957    1.000
    C68      C        0.71530    0.02180    0.30540    1.000
    H45      H        0.73340    0.98150    0.32220    1.000
    C69      C        0.72240    0.11300    0.30870    1.000
    H46      H        0.74480    0.13500    0.32780    1.000
    C70      C        0.69700    0.17330    0.28430    1.000
    C71      C        0.66420    0.13700    0.25770    1.000
    H47      H        0.64580    0.17570    0.24020    1.000
    C72      C        0.65850    0.04460    0.25690    1.000
    H48      H        0.63550    0.02070    0.23950    1.000
    I14      I        0.02640    0.14980    0.11840    1.000
    Zn7      Zn       0.37555    0.90742    0.93489    1.000
    Zn8      Zn       0.58601    0.62020    0.09489    1.000
    Zn9      Zn       0.67242    0.15142    0.77190    1.000
    I15      I        0.35492    0.91131    0.00682    1.000
    I16      I        0.39256    0.76335    0.89840    1.000
    I17      I        0.62456    0.73534    0.06265    1.000
    I18      I        0.52541    0.64943    0.12470    1.000
    I19      I        0.62825    0.16665    0.69774    1.000
    I20      I        0.73423    0.24317    0.79335    1.000
    N25      N        0.57850    0.27640    0.93848    1.000
    N26      N        0.52751    0.22730    0.97087    1.000
    N27      N        0.54096    0.14890    0.91077    1.000
    C73      C        0.55592    0.28370    0.96780    1.000
    C74      C        0.52080    0.16300    0.94100    1.000
    C75      C        0.57035    0.20600    0.91160    1.000
    N28      N        0.57445    0.51310    0.05104    1.000
    C76      C        0.60080    0.48740    0.02930    1.000
    H49      H        0.62390    0.52210    0.03240    1.000
    C77      C        0.59660    0.41280    0.00230    1.000
    H50      H        0.61660    0.39560    0.98800    1.000
    C78      C        0.56255    0.36380    0.99660    1.000
    C79      C        0.53440    0.39040    0.01920    1.000
    H51      H        0.51090    0.35730    0.01650    1.000
    C80      C        0.54130    0.46510    0.04540    1.000
    H52      H        0.52190    0.48390    0.06030    1.000
    N29      N        0.42202    0.99330    0.93839    1.000
    C81      C        0.43880    0.00250    0.90470    1.000
    H53      H        0.42730    0.97200    0.87880    1.000
    C82      C        0.47150    0.05290    0.90470    1.000
    H54      H        0.48330    0.05350    0.88040    1.000
    C83      C        0.48670    0.10250    0.94090    1.000
    C84      C        0.46940    0.09640    0.97530    1.000
    H55      H        0.47910    0.12990    0.00070    1.000
    C85      C        0.43770    0.04160    0.97280    1.000
    H56      H        0.42630    0.03800    0.99730    1.000
    N30      N        0.64059    0.17000    0.81857    1.000
    C86      C        0.65290    0.21650    0.85490    1.000
    H57      H        0.67800    0.24250    0.85960    1.000
    C87      C        0.63170    0.22900    0.88550    1.000
    H58      H        0.64220    0.26200    0.91090    1.000
    C88      C        0.59460    0.19310    0.87950    1.000
    C89      C        0.58150    0.14490    0.84200    1.000
    H59      H        0.55650    0.11820    0.83660    1.000
    C90      C        0.60490    0.13590    0.81270    1.000
    H60      H        0.59520    0.10360    0.78680    1.000
    N31      N        0.22085    0.05290    0.77377    1.000
    N32      N        0.23431    0.19280    0.81170    1.000
    N33      N        0.18096    0.18060    0.75253    1.000
    C91      C        0.19111    0.09380    0.74870    1.000
    C92      C        0.24063    0.10480    0.80580    1.000
    C93      C        0.20419    0.22760    0.78380    1.000
    N34      N        0.12291    0.94740    0.64435    1.000
    C94      C        0.11400    0.03160    0.65350    1.000
    H61      H        0.09190    0.05920    0.63610    1.000
    C95      C        0.13500    0.08070    0.68670    1.000
    H62      H        0.12760    0.14100    0.69200    1.000
    C96      C        0.16750    0.04100    0.71290    1.000
    C97      C        0.17610    0.95250    0.70440    1.000
    H63      H        0.19720    0.92220    0.72230    1.000
    C98      C        0.15370    0.90780    0.66940    1.000
    H64      H        0.16030    0.84760    0.66300    1.000
    N35      N        0.33301    0.97250    0.89121    1.000
    C99      C        0.31560    0.93410    0.85350    1.000
    H65      H        0.32430    0.87620    0.84630    1.000
    C100     C        0.28600    0.97510    0.82530    1.000
    H66      H        0.27430    0.94570    0.79930    1.000
    C101     C        0.27344    0.05960    0.83510    1.000
    C102     C        0.29120    0.10060    0.87360    1.000
    H67      H        0.28360    0.15940    0.88090    1.000
    C103     C        0.32020    0.05400    0.90080    1.000
    H68      H        0.33150    0.08090    0.92760    1.000
    N36      N        0.18407    0.51290    0.77957    1.000
    C104     C        0.21530    0.47820    0.80540    1.000
    H69      H        0.23340    0.51850    0.82220    1.000
    C105     C        0.22240    0.38700    0.80870    1.000
    H70      H        0.24480    0.36500    0.82780    1.000
    C106     C        0.19700    0.32670    0.78430    1.000
    C107     C        0.16420    0.36300    0.75770    1.000
    H71      H        0.14580    0.32430    0.74020    1.000
    C108     C        0.15850    0.45540    0.75690    1.000
    H72      H        0.13550    0.47930    0.73950    1.000
    I21      I        0.52640    0.35020    0.61840    1.000
    Zn10     Zn       0.87555    0.40742    0.93489    1.000
    Zn11     Zn       0.08601    0.12020    0.09489    1.000
    Zn12     Zn       0.17242    0.65142    0.77190    1.000
    I22      I        0.85492    0.41131    0.00682    1.000
    I23      I        0.89256    0.26335    0.89840    1.000
    I24      I        0.12456    0.23534    0.06265    1.000
    I25      I        0.02541    0.14943    0.12470    1.000
    I26      I        0.12825    0.66665    0.69774    1.000
    I27      I        0.23423    0.74317    0.79336    1.000
    N37      N        0.07850    0.77640    0.93848    1.000
    N38      N        0.02751    0.72730    0.97087    1.000
    N39      N        0.04096    0.64890    0.91077    1.000
    C109     C        0.05592    0.78370    0.96780    1.000
    C110     C        0.02080    0.66300    0.94100    1.000
    C111     C        0.07035    0.70600    0.91160    1.000
    N40      N        0.07445    0.01310    0.05104    1.000
    C112     C        0.10080    0.98740    0.02930    1.000
    H73      H        0.12390    0.02210    0.03240    1.000
    C113     C        0.09660    0.91280    0.00230    1.000
    H74      H        0.11660    0.89560    0.98800    1.000
    C114     C        0.06255    0.86380    0.99660    1.000
    C115     C        0.03440    0.89040    0.01920    1.000
    H75      H        0.01090    0.85730    0.01650    1.000
    C116     C        0.04130    0.96510    0.04540    1.000
    H76      H        0.02190    0.98390    0.06030    1.000
    N41      N        0.92202    0.49330    0.93839    1.000
    C117     C        0.93880    0.50250    0.90470    1.000
    H77      H        0.92730    0.47200    0.87880    1.000
    C118     C        0.97150    0.55290    0.90470    1.000
    H78      H        0.98330    0.55350    0.88040    1.000
    C119     C        0.98670    0.60250    0.94090    1.000
    C120     C        0.96940    0.59640    0.97530    1.000
    H79      H        0.97910    0.62990    0.00070    1.000
    C121     C        0.93770    0.54160    0.97280    1.000
    H80      H        0.92630    0.53800    0.99730    1.000
    N42      N        0.14059    0.67000    0.81857    1.000
    C122     C        0.15290    0.71650    0.85490    1.000
    H81      H        0.17800    0.74250    0.85960    1.000
    C123     C        0.13170    0.72900    0.88550    1.000
    H82      H        0.14220    0.76200    0.91090    1.000
    C124     C        0.09460    0.69310    0.87950    1.000
    C125     C        0.08150    0.64490    0.84200    1.000
    H83      H        0.05650    0.61820    0.83660    1.000
    C126     C        0.10490    0.63590    0.81270    1.000
    H84      H        0.09520    0.60360    0.78680    1.000
    N43      N        0.72085    0.55290    0.77377    1.000
    N44      N        0.73431    0.69280    0.81170    1.000
    N45      N        0.68096    0.68060    0.75253    1.000
    C127     C        0.69111    0.59380    0.74870    1.000
    C128     C        0.74063    0.60480    0.80580    1.000
    C129     C        0.70419    0.72760    0.78380    1.000
    N46      N        0.62291    0.44740    0.64435    1.000
    C130     C        0.61400    0.53160    0.65350    1.000
    H85      H        0.59190    0.55920    0.63610    1.000
    C131     C        0.63500    0.58070    0.68670    1.000
    H86      H        0.62760    0.64100    0.69200    1.000
    C132     C        0.66750    0.54100    0.71290    1.000
    C133     C        0.67610    0.45250    0.70440    1.000
    H87      H        0.69720    0.42220    0.72230    1.000
    C134     C        0.65370    0.40780    0.66940    1.000
    H88      H        0.66030    0.34760    0.66300    1.000
    N47      N        0.83301    0.47250    0.89121    1.000
    C135     C        0.81560    0.43410    0.85350    1.000
    H89      H        0.82430    0.37620    0.84630    1.000
    C136     C        0.78600    0.47510    0.82530    1.000
    H90      H        0.77430    0.44570    0.79930    1.000
    C137     C        0.77344    0.55960    0.83510    1.000
    C138     C        0.79120    0.60060    0.87360    1.000
    H91      H        0.78360    0.65940    0.88090    1.000
    C139     C        0.82020    0.55400    0.90080    1.000
    H92      H        0.83150    0.58090    0.92760    1.000
    N48      N        0.68407    0.01290    0.77957    1.000
    C140     C        0.71530    0.97820    0.80540    1.000
    H93      H        0.73340    0.01850    0.82220    1.000
    C141     C        0.72240    0.88700    0.80870    1.000
    H94      H        0.74480    0.86500    0.82780    1.000
    C142     C        0.69700    0.82670    0.78430    1.000
    C143     C        0.66420    0.86300    0.75770    1.000
    H95      H        0.64580    0.82430    0.74020    1.000
    C144     C        0.65850    0.95540    0.75690    1.000
    H96      H        0.63550    0.97930    0.73950    1.000
    I28      I        0.02640    0.85020    0.61840    1.000
    Zn13     Zn       0.62445    0.09258    0.06511    1.000
    Zn14     Zn       0.41399    0.37980    0.90511    1.000
    Zn15     Zn       0.32758    0.84858    0.22810    1.000
    I29      I        0.64508    0.08869    0.99318    1.000
    I30      I        0.60744    0.23665    0.10160    1.000
    I31      I        0.37544    0.26466    0.93735    1.000
    I32      I        0.47459    0.35057    0.87530    1.000
    I33      I        0.37175    0.83335    0.30226    1.000
    I34      I        0.26577    0.75683    0.20665    1.000
    N49      N        0.42150    0.72360    0.06152    1.000
    N50      N        0.47249    0.77270    0.02913    1.000
    N51      N        0.45904    0.85110    0.08923    1.000
    C145     C        0.44408    0.71630    0.03220    1.000
    C146     C        0.47920    0.83700    0.05900    1.000
    C147     C        0.42965    0.79400    0.08840    1.000
    N52      N        0.42555    0.48690    0.94896    1.000
    C148     C        0.39920    0.51260    0.97070    1.000
    H97      H        0.37610    0.47790    0.96760    1.000
    C149     C        0.40340    0.58720    0.99770    1.000
    H98      H        0.38340    0.60440    0.01200    1.000
    C150     C        0.43745    0.63620    0.00340    1.000
    C151     C        0.46560    0.60960    0.98080    1.000
    H99      H        0.48910    0.64270    0.98350    1.000
    C152     C        0.45870    0.53490    0.95460    1.000
    H100     H        0.47810    0.51610    0.93970    1.000
    N53      N        0.57798    0.00670    0.06161    1.000
    C153     C        0.56120    0.99750    0.09530    1.000
    H101     H        0.57270    0.02800    0.12120    1.000
    C154     C        0.52850    0.94710    0.09530    1.000
    H102     H        0.51670    0.94650    0.11960    1.000
    C155     C        0.51330    0.89750    0.05910    1.000
    C156     C        0.53060    0.90360    0.02470    1.000
    H103     H        0.52090    0.87010    0.99930    1.000
    C157     C        0.56230    0.95840    0.02720    1.000
    H104     H        0.57370    0.96200    0.00270    1.000
    N54      N        0.35941    0.83000    0.18143    1.000
    C158     C        0.34710    0.78350    0.14510    1.000
    H105     H        0.32200    0.75750    0.14040    1.000
    C159     C        0.36830    0.77100    0.11450    1.000
    H106     H        0.35780    0.73800    0.08910    1.000
    C160     C        0.40540    0.80690    0.12050    1.000
    C161     C        0.41850    0.85510    0.15800    1.000
    H107     H        0.44350    0.88180    0.16340    1.000
    C162     C        0.39510    0.86410    0.18730    1.000
    H108     H        0.40480    0.89640    0.21320    1.000
    N55      N        0.77915    0.94710    0.22623    1.000
    N56      N        0.76569    0.80720    0.18830    1.000
    N57      N        0.81904    0.81940    0.24747    1.000
    C163     C        0.80889    0.90620    0.25130    1.000
    C164     C        0.75937    0.89520    0.19420    1.000
    C165     C        0.79581    0.77240    0.21620    1.000
    N58      N        0.87709    0.05260    0.35565    1.000
    C166     C        0.88600    0.96840    0.34650    1.000
    H109     H        0.90810    0.94080    0.36390    1.000
    C167     C        0.86500    0.91930    0.31330    1.000
    H110     H        0.87240    0.85900    0.30800    1.000
    C168     C        0.83250    0.95900    0.28710    1.000
    C169     C        0.82390    0.04750    0.29560    1.000
    H111     H        0.80280    0.07780    0.27770    1.000
    C170     C        0.84630    0.09220    0.33060    1.000
    H112     H        0.83970    0.15240    0.33700    1.000
    N59      N        0.66699    0.02750    0.10879    1.000
    C171     C        0.68440    0.06590    0.14650    1.000
    H113     H        0.67570    0.12380    0.15370    1.000
    C172     C        0.71400    0.02490    0.17470    1.000
    H114     H        0.72570    0.05430    0.20070    1.000
    C173     C        0.72656    0.94040    0.16490    1.000
    C174     C        0.70880    0.89940    0.12640    1.000
    H115     H        0.71640    0.84060    0.11910    1.000
    C175     C        0.67980    0.94600    0.09920    1.000
    H116     H        0.66850    0.91910    0.07240    1.000
    N60      N        0.81593    0.48710    0.22043    1.000
    C176     C        0.78470    0.52180    0.19460    1.000
    H117     H        0.76660    0.48150    0.17780    1.000
    C177     C        0.77760    0.61300    0.19130    1.000
    H118     H        0.75520    0.63500    0.17220    1.000
    C178     C        0.80300    0.67330    0.21570    1.000
    C179     C        0.83580    0.63700    0.24230    1.000
    H119     H        0.85420    0.67570    0.25980    1.000
    C180     C        0.84150    0.54460    0.24310    1.000
    H120     H        0.86450    0.52070    0.26050    1.000
    I35      I        0.47360    0.64980    0.38160    1.000
    Zn16     Zn       0.12445    0.59258    0.06511    1.000
    Zn17     Zn       0.91399    0.87980    0.90511    1.000
    Zn18     Zn       0.82758    0.34858    0.22810    1.000
    I36      I        0.14508    0.58869    0.99318    1.000
    I37      I        0.10744    0.73665    0.10160    1.000
    I38      I        0.87544    0.76466    0.93735    1.000
    I39      I        0.97459    0.85057    0.87530    1.000
    I40      I        0.87175    0.33335    0.30226    1.000
    I41      I        0.76577    0.25683    0.20664    1.000
    N61      N        0.92150    0.22360    0.06152    1.000
    N62      N        0.97249    0.27270    0.02913    1.000
    N63      N        0.95904    0.35110    0.08923    1.000
    C181     C        0.94408    0.21630    0.03220    1.000
    C182     C        0.97920    0.33700    0.05900    1.000
    C183     C        0.92965    0.29400    0.08840    1.000
    N64      N        0.92555    0.98690    0.94896    1.000
    C184     C        0.89920    0.01260    0.97070    1.000
    H121     H        0.87610    0.97790    0.96760    1.000
    C185     C        0.90340    0.08720    0.99770    1.000
    H122     H        0.88340    0.10440    0.01200    1.000
    C186     C        0.93745    0.13620    0.00340    1.000
    C187     C        0.96560    0.10960    0.98080    1.000
    H123     H        0.98910    0.14270    0.98350    1.000
    C188     C        0.95870    0.03490    0.95460    1.000
    H124     H        0.97810    0.01610    0.93970    1.000
    N65      N        0.07798    0.50670    0.06161    1.000
    C189     C        0.06120    0.49750    0.09530    1.000
    H125     H        0.07270    0.52800    0.12120    1.000
    C190     C        0.02850    0.44710    0.09530    1.000
    H126     H        0.01670    0.44650    0.11960    1.000
    C191     C        0.01330    0.39750    0.05910    1.000
    C192     C        0.03060    0.40360    0.02470    1.000
    H127     H        0.02090    0.37010    0.99930    1.000
    C193     C        0.06230    0.45840    0.02720    1.000
    H128     H        0.07370    0.46200    0.00270    1.000
    N66      N        0.85941    0.33000    0.18143    1.000
    C194     C        0.84710    0.28350    0.14510    1.000
    H129     H        0.82200    0.25750    0.14040    1.000
    C195     C        0.86830    0.27100    0.11450    1.000
    H130     H        0.85780    0.23800    0.08910    1.000
    C196     C        0.90540    0.30690    0.12050    1.000
    C197     C        0.91850    0.35510    0.15800    1.000
    H131     H        0.94350    0.38180    0.16340    1.000
    C198     C        0.89510    0.36410    0.18730    1.000
    H132     H        0.90480    0.39640    0.21320    1.000
    N67      N        0.27915    0.44710    0.22623    1.000
    N68      N        0.26569    0.30720    0.18830    1.000
    N69      N        0.31904    0.31940    0.24747    1.000
    C199     C        0.30889    0.40620    0.25130    1.000
    C200     C        0.25937    0.39520    0.19420    1.000
    C201     C        0.29581    0.27240    0.21620    1.000
    N70      N        0.37709    0.55260    0.35565    1.000
    C202     C        0.38600    0.46840    0.34650    1.000
    H133     H        0.40810    0.44080    0.36390    1.000
    C203     C        0.36500    0.41930    0.31330    1.000
    H134     H        0.37240    0.35900    0.30800    1.000
    C204     C        0.33250    0.45900    0.28710    1.000
    C205     C        0.32390    0.54750    0.29560    1.000
    H135     H        0.30280    0.57780    0.27770    1.000
    C206     C        0.34630    0.59220    0.33060    1.000
    H136     H        0.33970    0.65240    0.33700    1.000
    N71      N        0.16699    0.52750    0.10879    1.000
    C207     C        0.18440    0.56590    0.14650    1.000
    H137     H        0.17570    0.62380    0.15370    1.000
    C208     C        0.21400    0.52490    0.17470    1.000
    H138     H        0.22570    0.55430    0.20070    1.000
    C209     C        0.22656    0.44040    0.16490    1.000
    C210     C        0.20880    0.39940    0.12640    1.000
    H139     H        0.21640    0.34060    0.11910    1.000
    C211     C        0.17980    0.44600    0.09920    1.000
    H140     H        0.16850    0.41910    0.07240    1.000
    N72      N        0.31593    0.98710    0.22043    1.000
    C212     C        0.28470    0.02180    0.19460    1.000
    H141     H        0.26660    0.98150    0.17780    1.000
    C213     C        0.27760    0.11300    0.19130    1.000
    H142     H        0.25520    0.13500    0.17220    1.000
    C214     C        0.30300    0.17330    0.21570    1.000
    C215     C        0.33580    0.13700    0.24230    1.000
    H143     H        0.35420    0.17570    0.25980    1.000
    C216     C        0.34150    0.04460    0.24310    1.000
    H144     H        0.36450    0.02070    0.26050    1.000
    I42      I        0.97360    0.14980    0.38160    1.000
    Zn19     Zn       0.62445    0.90742    0.56511    1.000
    Zn20     Zn       0.41399    0.62020    0.40511    1.000
    Zn21     Zn       0.32758    0.15142    0.72810    1.000
    I43      I        0.64508    0.91131    0.49318    1.000
    I44      I        0.60744    0.76335    0.60160    1.000
    I45      I        0.37544    0.73534    0.43735    1.000
    I46      I        0.47459    0.64943    0.37530    1.000
    I47      I        0.37175    0.16665    0.80226    1.000
    I48      I        0.26577    0.24317    0.70664    1.000
    N73      N        0.42150    0.27640    0.56152    1.000
    N74      N        0.47249    0.22730    0.52913    1.000
    N75      N        0.45904    0.14890    0.58923    1.000
    C217     C        0.44408    0.28370    0.53220    1.000
    C218     C        0.47920    0.16300    0.55900    1.000
    C219     C        0.42965    0.20600    0.58840    1.000
    N76      N        0.42555    0.51310    0.44896    1.000
    C220     C        0.39920    0.48740    0.47070    1.000
    H145     H        0.37610    0.52210    0.46760    1.000
    C221     C        0.40340    0.41280    0.49770    1.000
    H146     H        0.38340    0.39560    0.51200    1.000
    C222     C        0.43745    0.36380    0.50340    1.000
    C223     C        0.46560    0.39040    0.48080    1.000
    H147     H        0.48910    0.35730    0.48350    1.000
    C224     C        0.45870    0.46510    0.45460    1.000
    H148     H        0.47810    0.48390    0.43970    1.000
    N77      N        0.57798    0.99330    0.56161    1.000
    C225     C        0.56120    0.00250    0.59530    1.000
    H149     H        0.57270    0.97200    0.62120    1.000
    C226     C        0.52850    0.05290    0.59530    1.000
    H150     H        0.51670    0.05350    0.61960    1.000
    C227     C        0.51330    0.10250    0.55910    1.000
    C228     C        0.53060    0.09640    0.52470    1.000
    H151     H        0.52090    0.12990    0.49930    1.000
    C229     C        0.56230    0.04160    0.52720    1.000
    H152     H        0.57370    0.03800    0.50270    1.000
    N78      N        0.35941    0.17000    0.68143    1.000
    C230     C        0.34710    0.21650    0.64510    1.000
    H153     H        0.32200    0.24250    0.64040    1.000
    C231     C        0.36830    0.22900    0.61450    1.000
    H154     H        0.35780    0.26200    0.58910    1.000
    C232     C        0.40540    0.19310    0.62050    1.000
    C233     C        0.41850    0.14490    0.65800    1.000
    H155     H        0.44350    0.11820    0.66340    1.000
    C234     C        0.39510    0.13590    0.68730    1.000
    H156     H        0.40480    0.10360    0.71320    1.000
    N79      N        0.77915    0.05290    0.72623    1.000
    N80      N        0.76569    0.19280    0.68830    1.000
    N81      N        0.81904    0.18060    0.74747    1.000
    C235     C        0.80889    0.09380    0.75130    1.000
    C236     C        0.75937    0.10480    0.69420    1.000
    C237     C        0.79581    0.22760    0.71620    1.000
    N82      N        0.87709    0.94740    0.85565    1.000
    C238     C        0.88600    0.03160    0.84650    1.000
    H157     H        0.90810    0.05920    0.86390    1.000
    C239     C        0.86500    0.08070    0.81330    1.000
    H158     H        0.87240    0.14100    0.80800    1.000
    C240     C        0.83250    0.04100    0.78710    1.000
    C241     C        0.82390    0.95250    0.79560    1.000
    H159     H        0.80280    0.92220    0.77770    1.000
    C242     C        0.84630    0.90780    0.83060    1.000
    H160     H        0.83970    0.84760    0.83700    1.000
    N83      N        0.66699    0.97250    0.60879    1.000
    C243     C        0.68440    0.93410    0.64650    1.000
    H161     H        0.67570    0.87620    0.65370    1.000
    C244     C        0.71400    0.97510    0.67470    1.000
    H162     H        0.72570    0.94570    0.70070    1.000
    C245     C        0.72656    0.05960    0.66490    1.000
    C246     C        0.70880    0.10060    0.62640    1.000
    H163     H        0.71640    0.15940    0.61910    1.000
    C247     C        0.67980    0.05400    0.59920    1.000
    H164     H        0.66850    0.08090    0.57240    1.000
    N84      N        0.81593    0.51290    0.72043    1.000
    C248     C        0.78470    0.47820    0.69460    1.000
    H165     H        0.76660    0.51850    0.67780    1.000
    C249     C        0.77760    0.38700    0.69130    1.000
    H166     H        0.75520    0.36500    0.67220    1.000
    C250     C        0.80300    0.32670    0.71570    1.000
    C251     C        0.83580    0.36300    0.74230    1.000
    H167     H        0.85420    0.32430    0.75980    1.000
    C252     C        0.84150    0.45540    0.74310    1.000
    H168     H        0.86450    0.47930    0.76050    1.000
    I49      I        0.47360    0.35020    0.88160    1.000
    Zn22     Zn       0.12445    0.40742    0.56511    1.000
    Zn23     Zn       0.91399    0.12020    0.40511    1.000
    Zn24     Zn       0.82758    0.65142    0.72810    1.000
    I50      I        0.14508    0.41131    0.49318    1.000
    I51      I        0.10744    0.26335    0.60160    1.000
    I52      I        0.87544    0.23534    0.43735    1.000
    I53      I        0.97459    0.14943    0.37530    1.000
    I54      I        0.87175    0.66665    0.80226    1.000
    I55      I        0.76577    0.74317    0.70664    1.000
    N85      N        0.92150    0.77640    0.56152    1.000
    N86      N        0.97249    0.72730    0.52913    1.000
    N87      N        0.95904    0.64890    0.58923    1.000
    C253     C        0.94408    0.78370    0.53220    1.000
    C254     C        0.97920    0.66300    0.55900    1.000
    C255     C        0.92965    0.70600    0.58840    1.000
    N88      N        0.92555    0.01310    0.44896    1.000
    C256     C        0.89920    0.98740    0.47070    1.000
    H169     H        0.87610    0.02210    0.46760    1.000
    C257     C        0.90340    0.91280    0.49770    1.000
    H170     H        0.88340    0.89560    0.51200    1.000
    C258     C        0.93745    0.86380    0.50340    1.000
    C259     C        0.96560    0.89040    0.48080    1.000
    H171     H        0.98910    0.85730    0.48350    1.000
    C260     C        0.95870    0.96510    0.45460    1.000
    H172     H        0.97810    0.98390    0.43970    1.000
    N89      N        0.07798    0.49330    0.56161    1.000
    C261     C        0.06120    0.50250    0.59530    1.000
    H173     H        0.07270    0.47200    0.62120    1.000
    C262     C        0.02850    0.55290    0.59530    1.000
    H174     H        0.01670    0.55350    0.61960    1.000
    C263     C        0.01330    0.60250    0.55910    1.000
    C264     C        0.03060    0.59640    0.52470    1.000
    H175     H        0.02090    0.62990    0.49930    1.000
    C265     C        0.06230    0.54160    0.52720    1.000
    H176     H        0.07370    0.53800    0.50270    1.000
    N90      N        0.85941    0.67000    0.68143    1.000
    C266     C        0.84710    0.71650    0.64510    1.000
    H177     H        0.82200    0.74250    0.64040    1.000
    C267     C        0.86830    0.72900    0.61450    1.000
    H178     H        0.85780    0.76200    0.58910    1.000
    C268     C        0.90540    0.69310    0.62050    1.000
    C269     C        0.91850    0.64490    0.65800    1.000
    H179     H        0.94350    0.61820    0.66340    1.000
    C270     C        0.89510    0.63590    0.68730    1.000
    H180     H        0.90480    0.60360    0.71320    1.000
    N91      N        0.27915    0.55290    0.72623    1.000
    N92      N        0.26569    0.69280    0.68830    1.000
    N93      N        0.31904    0.68060    0.74747    1.000
    C271     C        0.30889    0.59380    0.75130    1.000
    C272     C        0.25937    0.60480    0.69420    1.000
    C273     C        0.29581    0.72760    0.71620    1.000
    N94      N        0.37709    0.44740    0.85565    1.000
    C274     C        0.38600    0.53160    0.84650    1.000
    H181     H        0.40810    0.55920    0.86390    1.000
    C275     C        0.36500    0.58070    0.81330    1.000
    H182     H        0.37240    0.64100    0.80800    1.000
    C276     C        0.33250    0.54100    0.78710    1.000
    C277     C        0.32390    0.45250    0.79560    1.000
    H183     H        0.30280    0.42220    0.77770    1.000
    C278     C        0.34630    0.40780    0.83060    1.000
    H184     H        0.33970    0.34760    0.83700    1.000
    N95      N        0.16699    0.47250    0.60879    1.000
    C279     C        0.18440    0.43410    0.64650    1.000
    H185     H        0.17570    0.37620    0.65370    1.000
    C280     C        0.21400    0.47510    0.67470    1.000
    H186     H        0.22570    0.44570    0.70070    1.000
    C281     C        0.22656    0.55960    0.66490    1.000
    C282     C        0.20880    0.60060    0.62640    1.000
    H187     H        0.21640    0.65940    0.61910    1.000
    C283     C        0.17980    0.55400    0.59920    1.000
    H188     H        0.16850    0.58090    0.57240    1.000
    N96      N        0.31593    0.01290    0.72043    1.000
    C284     C        0.28470    0.97820    0.69460    1.000
    H189     H        0.26660    0.01850    0.67780    1.000
    C285     C        0.27760    0.88700    0.69130    1.000
    H190     H        0.25520    0.86500    0.67220    1.000
    C286     C        0.30300    0.82670    0.71570    1.000
    C287     C        0.33580    0.86300    0.74230    1.000
    H191     H        0.35420    0.82430    0.75980    1.000
    C288     C        0.34150    0.95540    0.74310    1.000
    H192     H        0.36450    0.97930    0.76050    1.000
    I56      I        0.97360    0.85020    0.88160    1.000
