# CIF file generated by openbabel 3.1.0, see https://openbabel.org
data_I
_chemical_name_common 'image0'
_cell_length_a 16.18
_cell_length_b 43.077
_cell_length_c 45.485
_cell_angle_alpha 90
_cell_angle_beta 90
_cell_angle_gamma 90
_space_group_name_H-M_alt 'P 1'
_space_group_name_Hall 'P 1'
loop_
    _symmetry_equiv_pos_as_xyz
    x,y,z
loop_
    _atom_site_label
    _atom_site_type_symbol
    _atom_site_fract_x
    _atom_site_fract_y
    _atom_site_fract_z
    _atom_site_occupancy
    Cu1      Cu       0.50118    0.42879    0.06245    1.000
    Cu2      Cu       0.43155    0.40796    0.98948    1.000
    C1       C        0.53330    0.49541    0.16348    1.000
    C2       C        0.58230    0.47863    0.18251    1.000
    H1       H        0.59620    0.45830    0.17780    1.000
    C3       C        0.61160    0.49157    0.20858    1.000
    C4       C        0.59090    0.52226    0.21518    1.000
    H2       H        0.61000    0.53130    0.23250    1.000
    C5       C        0.54210    0.53926    0.19614    1.000
    C6       C        0.51180    0.52553    0.17050    1.000
    H3       H        0.47700    0.53670    0.15810    1.000
    C7       C        0.30260    0.36899    0.12112    1.000
    H4       H        0.25400    0.36500    0.11090    1.000
    C8       C        0.30230    0.36891    0.15178    1.000
    N1       N        0.43470    0.49453    0.12222    1.000
    C9       C        0.49940    0.48255    0.13639    1.000
    N2       N        0.52790    0.45872    0.12062    1.000
    N3       N        0.48074    0.45600    0.09671    1.000
    N4       N        0.42310    0.47812    0.09769    1.000
    N5       N        0.71463    0.45163    0.22553    1.000
    N6       N        0.74250    0.44224    0.25162    1.000
    N7       N        0.70570    0.45930    0.27226    1.000
    N8       N        0.65510    0.47923    0.25892    1.000
    C10      C        0.66062    0.47448    0.23004    1.000
    N9       N        0.52510    0.61853    0.21847    1.000
    N10      N        0.45690    0.61507    0.20313    1.000
    N11      N        0.45290    0.58603    0.19246    1.000
    N12      N        0.39860    0.38740    0.02872    1.000
    N13      N        0.41500    0.39574    0.05676    1.000
    C11      C        0.22713    0.36390    0.16880    1.000
    N14      N        0.21830    0.37230    0.19679    1.000
    N15      N        0.14379    0.36321    0.20574    1.000
    N16      N        0.10657    0.34919    0.18326    1.000
    N17      N        0.15806    0.34961    0.16044    1.000
    C12      C        0.52080    0.57175    0.20259    1.000
    N18      N        0.56760    0.59127    0.21874    1.000
    Cu3      Cu       0.50118    0.92879    0.56245    1.000
    Cu4      Cu       0.43155    0.90796    0.48948    1.000
    C13      C        0.53330    0.99541    0.66348    1.000
    C14      C        0.58230    0.97863    0.68251    1.000
    H5       H        0.59620    0.95830    0.67780    1.000
    C15      C        0.61160    0.99157    0.70858    1.000
    C16      C        0.59090    0.02226    0.71518    1.000
    H6       H        0.61000    0.03130    0.73250    1.000
    C17      C        0.54210    0.03926    0.69614    1.000
    C18      C        0.51180    0.02553    0.67050    1.000
    H7       H        0.47700    0.03670    0.65810    1.000
    C19      C        0.30260    0.86899    0.62112    1.000
    H8       H        0.25400    0.86500    0.61090    1.000
    C20      C        0.30230    0.86891    0.65178    1.000
    N19      N        0.43470    0.99453    0.62222    1.000
    C21      C        0.49940    0.98255    0.63639    1.000
    N20      N        0.52790    0.95872    0.62062    1.000
    N21      N        0.48074    0.95600    0.59671    1.000
    N22      N        0.42310    0.97812    0.59769    1.000
    N23      N        0.71463    0.95163    0.72553    1.000
    N24      N        0.74250    0.94224    0.75162    1.000
    N25      N        0.70570    0.95930    0.77226    1.000
    N26      N        0.65510    0.97923    0.75892    1.000
    C22      C        0.66062    0.97448    0.73004    1.000
    N27      N        0.52510    0.11853    0.71847    1.000
    N28      N        0.45690    0.11507    0.70313    1.000
    N29      N        0.45290    0.08603    0.69246    1.000
    N30      N        0.39860    0.88740    0.52872    1.000
    N31      N        0.41500    0.89574    0.55676    1.000
    C23      C        0.22713    0.86390    0.66880    1.000
    N32      N        0.21830    0.87230    0.69679    1.000
    N33      N        0.14379    0.86321    0.70574    1.000
    N34      N        0.10657    0.84919    0.68326    1.000
    N35      N        0.15806    0.84961    0.66044    1.000
    C24      C        0.52080    0.07175    0.70259    1.000
    N36      N        0.56760    0.09127    0.71874    1.000
    Cu5      Cu       0.00118    0.42879    0.56245    1.000
    Cu6      Cu       0.93155    0.40796    0.48948    1.000
    C25      C        0.03330    0.49541    0.66348    1.000
    C26      C        0.08230    0.47863    0.68251    1.000
    H9       H        0.09620    0.45830    0.67780    1.000
    C27      C        0.11160    0.49157    0.70858    1.000
    C28      C        0.09090    0.52226    0.71518    1.000
    H10      H        0.11000    0.53130    0.73250    1.000
    C29      C        0.04210    0.53926    0.69614    1.000
    C30      C        0.01180    0.52553    0.67050    1.000
    H11      H        0.97700    0.53670    0.65810    1.000
    C31      C        0.80260    0.36899    0.62112    1.000
    H12      H        0.75400    0.36500    0.61090    1.000
    C32      C        0.80230    0.36891    0.65178    1.000
    N37      N        0.93470    0.49453    0.62222    1.000
    C33      C        0.99940    0.48255    0.63639    1.000
    N38      N        0.02790    0.45872    0.62062    1.000
    N39      N        0.98074    0.45600    0.59671    1.000
    N40      N        0.92310    0.47812    0.59769    1.000
    N41      N        0.21463    0.45163    0.72553    1.000
    N42      N        0.24250    0.44224    0.75162    1.000
    N43      N        0.20570    0.45930    0.77226    1.000
    N44      N        0.15510    0.47923    0.75892    1.000
    C34      C        0.16062    0.47448    0.73004    1.000
    N45      N        0.02510    0.61853    0.71847    1.000
    N46      N        0.95690    0.61507    0.70313    1.000
    N47      N        0.95290    0.58603    0.69246    1.000
    N48      N        0.89860    0.38740    0.52872    1.000
    N49      N        0.91500    0.39574    0.55676    1.000
    C35      C        0.72713    0.36390    0.66880    1.000
    N50      N        0.71830    0.37230    0.69679    1.000
    N51      N        0.64379    0.36321    0.70574    1.000
    N52      N        0.60657    0.34919    0.68326    1.000
    N53      N        0.65806    0.34961    0.66044    1.000
    C36      C        0.02080    0.57175    0.70259    1.000
    N54      N        0.06760    0.59127    0.71874    1.000
    Cu7      Cu       0.00118    0.92879    0.06245    1.000
    Cu8      Cu       0.93155    0.90796    0.98948    1.000
    C37      C        0.03330    0.99541    0.16348    1.000
    C38      C        0.08230    0.97863    0.18251    1.000
    H13      H        0.09620    0.95830    0.17780    1.000
    C39      C        0.11160    0.99157    0.20858    1.000
    C40      C        0.09090    0.02226    0.21518    1.000
    H14      H        0.11000    0.03130    0.23250    1.000
    C41      C        0.04210    0.03926    0.19614    1.000
    C42      C        0.01180    0.02553    0.17050    1.000
    H15      H        0.97700    0.03670    0.15810    1.000
    C43      C        0.80260    0.86899    0.12112    1.000
    H16      H        0.75400    0.86500    0.11090    1.000
    C44      C        0.80230    0.86891    0.15178    1.000
    N55      N        0.93470    0.99453    0.12222    1.000
    C45      C        0.99940    0.98255    0.13639    1.000
    N56      N        0.02790    0.95872    0.12062    1.000
    N57      N        0.98074    0.95600    0.09671    1.000
    N58      N        0.92310    0.97812    0.09769    1.000
    N59      N        0.21463    0.95163    0.22553    1.000
    N60      N        0.24250    0.94224    0.25162    1.000
    N61      N        0.20570    0.95930    0.27226    1.000
    N62      N        0.15510    0.97923    0.25892    1.000
    C46      C        0.16062    0.97448    0.23004    1.000
    N63      N        0.02510    0.11853    0.21847    1.000
    N64      N        0.95690    0.11507    0.20313    1.000
    N65      N        0.95290    0.08603    0.19246    1.000
    N66      N        0.89860    0.88740    0.02872    1.000
    N67      N        0.91500    0.89574    0.05676    1.000
    C47      C        0.72713    0.86390    0.16880    1.000
    N68      N        0.71830    0.87230    0.19679    1.000
    N69      N        0.64379    0.86321    0.20574    1.000
    N70      N        0.60657    0.84919    0.18326    1.000
    N71      N        0.65806    0.84961    0.16044    1.000
    C48      C        0.02080    0.07175    0.20259    1.000
    N72      N        0.06760    0.09127    0.21874    1.000
    Cu9      Cu       0.24882    0.32121    0.06245    1.000
    Cu10     Cu       0.31845    0.34204    0.98948    1.000
    C49      C        0.21670    0.25459    0.16348    1.000
    C50      C        0.16770    0.27137    0.18251    1.000
    H17      H        0.15380    0.29170    0.17780    1.000
    C51      C        0.13840    0.25843    0.20858    1.000
    C52      C        0.15910    0.22774    0.21518    1.000
    H18      H        0.14000    0.21870    0.23250    1.000
    C53      C        0.20790    0.21074    0.19614    1.000
    C54      C        0.23820    0.22447    0.17050    1.000
    H19      H        0.27300    0.21330    0.15810    1.000
    C55      C        0.44740    0.38101    0.12112    1.000
    H20      H        0.49600    0.38500    0.11090    1.000
    C56      C        0.44770    0.38109    0.15178    1.000
    N73      N        0.31530    0.25547    0.12222    1.000
    C57      C        0.25060    0.26745    0.13639    1.000
    N74      N        0.22210    0.29128    0.12062    1.000
    N75      N        0.26926    0.29400    0.09671    1.000
    N76      N        0.32690    0.27188    0.09769    1.000
    N77      N        0.03537    0.29837    0.22553    1.000
    N78      N        0.00750    0.30776    0.25162    1.000
    N79      N        0.04430    0.29070    0.27226    1.000
    N80      N        0.09490    0.27077    0.25892    1.000
    C58      C        0.08938    0.27552    0.23004    1.000
    N81      N        0.22490    0.13147    0.21847    1.000
    N82      N        0.29310    0.13493    0.20313    1.000
    N83      N        0.29710    0.16397    0.19246    1.000
    N84      N        0.35140    0.36260    0.02872    1.000
    N85      N        0.33500    0.35426    0.05676    1.000
    C59      C        0.52287    0.38610    0.16880    1.000
    N86      N        0.53170    0.37770    0.19679    1.000
    N87      N        0.60621    0.38679    0.20574    1.000
    N88      N        0.64343    0.40081    0.18326    1.000
    N89      N        0.59194    0.40039    0.16044    1.000
    C60      C        0.22920    0.17825    0.20259    1.000
    N90      N        0.18240    0.15873    0.21874    1.000
    Cu11     Cu       0.24882    0.82121    0.56245    1.000
    Cu12     Cu       0.31845    0.84204    0.48948    1.000
    C61      C        0.21670    0.75459    0.66348    1.000
    C62      C        0.16770    0.77137    0.68251    1.000
    H21      H        0.15380    0.79170    0.67780    1.000
    C63      C        0.13840    0.75843    0.70858    1.000
    C64      C        0.15910    0.72774    0.71518    1.000
    H22      H        0.14000    0.71870    0.73250    1.000
    C65      C        0.20790    0.71074    0.69614    1.000
    C66      C        0.23820    0.72447    0.67050    1.000
    H23      H        0.27300    0.71330    0.65810    1.000
    C67      C        0.44740    0.88101    0.62112    1.000
    H24      H        0.49600    0.88500    0.61090    1.000
    C68      C        0.44770    0.88109    0.65178    1.000
    N91      N        0.31530    0.75547    0.62222    1.000
    C69      C        0.25060    0.76745    0.63639    1.000
    N92      N        0.22210    0.79128    0.62062    1.000
    N93      N        0.26926    0.79400    0.59671    1.000
    N94      N        0.32690    0.77188    0.59769    1.000
    N95      N        0.03537    0.79837    0.72553    1.000
    N96      N        0.00750    0.80776    0.75162    1.000
    N97      N        0.04430    0.79070    0.77226    1.000
    N98      N        0.09490    0.77077    0.75892    1.000
    C70      C        0.08938    0.77552    0.73004    1.000
    N99      N        0.22490    0.63147    0.71847    1.000
    N100     N        0.29310    0.63493    0.70313    1.000
    N101     N        0.29710    0.66397    0.69246    1.000
    N102     N        0.35140    0.86260    0.52872    1.000
    N103     N        0.33500    0.85426    0.55676    1.000
    C71      C        0.52287    0.88610    0.66880    1.000
    N104     N        0.53170    0.87770    0.69679    1.000
    N105     N        0.60621    0.88679    0.70574    1.000
    N106     N        0.64343    0.90081    0.68326    1.000
    N107     N        0.59194    0.90039    0.66044    1.000
    C72      C        0.22920    0.67825    0.70259    1.000
    N108     N        0.18240    0.65873    0.71874    1.000
    Cu13     Cu       0.74882    0.32121    0.56245    1.000
    Cu14     Cu       0.81845    0.34204    0.48948    1.000
    C73      C        0.71670    0.25459    0.66348    1.000
    C74      C        0.66770    0.27137    0.68251    1.000
    H25      H        0.65380    0.29170    0.67780    1.000
    C75      C        0.63840    0.25843    0.70858    1.000
    C76      C        0.65910    0.22774    0.71518    1.000
    H26      H        0.64000    0.21870    0.73250    1.000
    C77      C        0.70790    0.21074    0.69614    1.000
    C78      C        0.73820    0.22447    0.67050    1.000
    H27      H        0.77300    0.21330    0.65810    1.000
    C79      C        0.94740    0.38101    0.62112    1.000
    H28      H        0.99600    0.38500    0.61090    1.000
    C80      C        0.94770    0.38109    0.65178    1.000
    N109     N        0.81530    0.25547    0.62222    1.000
    C81      C        0.75060    0.26745    0.63639    1.000
    N110     N        0.72210    0.29128    0.62062    1.000
    N111     N        0.76926    0.29400    0.59671    1.000
    N112     N        0.82690    0.27188    0.59769    1.000
    N113     N        0.53537    0.29837    0.72553    1.000
    N114     N        0.50750    0.30776    0.75162    1.000
    N115     N        0.54430    0.29070    0.77226    1.000
    N116     N        0.59490    0.27077    0.75892    1.000
    C82      C        0.58938    0.27552    0.73004    1.000
    N117     N        0.72490    0.13147    0.71847    1.000
    N118     N        0.79310    0.13493    0.70313    1.000
    N119     N        0.79710    0.16397    0.69246    1.000
    N120     N        0.85140    0.36260    0.52872    1.000
    N121     N        0.83500    0.35426    0.55676    1.000
    C83      C        0.02287    0.38610    0.66880    1.000
    N122     N        0.03170    0.37770    0.69679    1.000
    N123     N        0.10621    0.38679    0.70574    1.000
    N124     N        0.14343    0.40081    0.68326    1.000
    N125     N        0.09194    0.40039    0.66044    1.000
    C84      C        0.72920    0.17825    0.70259    1.000
    N126     N        0.68240    0.15873    0.71874    1.000
    Cu15     Cu       0.74882    0.82121    0.06245    1.000
    Cu16     Cu       0.81845    0.84204    0.98948    1.000
    C85      C        0.71670    0.75459    0.16348    1.000
    C86      C        0.66770    0.77137    0.18251    1.000
    H29      H        0.65380    0.79170    0.17780    1.000
    C87      C        0.63840    0.75843    0.20858    1.000
    C88      C        0.65910    0.72774    0.21518    1.000
    H30      H        0.64000    0.71870    0.23250    1.000
    C89      C        0.70790    0.71074    0.19614    1.000
    C90      C        0.73820    0.72447    0.17050    1.000
    H31      H        0.77300    0.71330    0.15810    1.000
    C91      C        0.94740    0.88101    0.12112    1.000
    H32      H        0.99600    0.88500    0.11090    1.000
    C92      C        0.94770    0.88109    0.15178    1.000
    N127     N        0.81530    0.75547    0.12222    1.000
    C93      C        0.75060    0.76745    0.13639    1.000
    N128     N        0.72210    0.79128    0.12062    1.000
    N129     N        0.76926    0.79400    0.09671    1.000
    N130     N        0.82690    0.77188    0.09769    1.000
    N131     N        0.53537    0.79837    0.22553    1.000
    N132     N        0.50750    0.80776    0.25162    1.000
    N133     N        0.54430    0.79070    0.27226    1.000
    N134     N        0.59490    0.77077    0.25892    1.000
    C94      C        0.58938    0.77552    0.23004    1.000
    N135     N        0.72490    0.63147    0.21847    1.000
    N136     N        0.79310    0.63493    0.20313    1.000
    N137     N        0.79710    0.66397    0.19246    1.000
    N138     N        0.85140    0.86260    0.02872    1.000
    N139     N        0.83500    0.85426    0.05676    1.000
    C95      C        0.02287    0.88610    0.16880    1.000
    N140     N        0.03170    0.87770    0.19679    1.000
    N141     N        0.10621    0.88679    0.20574    1.000
    N142     N        0.14343    0.90081    0.18326    1.000
    N143     N        0.09194    0.90039    0.16044    1.000
    C96      C        0.72920    0.67825    0.20259    1.000
    N144     N        0.68240    0.65873    0.21874    1.000
    Cu17     Cu       0.24882    0.42879    0.68755    1.000
    Cu18     Cu       0.31845    0.40796    0.76052    1.000
    C97      C        0.21670    0.49541    0.58652    1.000
    C98      C        0.16770    0.47863    0.56749    1.000
    H33      H        0.15380    0.45830    0.57220    1.000
    C99      C        0.13840    0.49157    0.54142    1.000
    C100     C        0.15910    0.52226    0.53482    1.000
    H34      H        0.14000    0.53130    0.51750    1.000
    C101     C        0.20790    0.53926    0.55386    1.000
    C102     C        0.23820    0.52553    0.57950    1.000
    H35      H        0.27300    0.53670    0.59190    1.000
    C103     C        0.44740    0.36899    0.62888    1.000
    H36      H        0.49600    0.36500    0.63910    1.000
    C104     C        0.44770    0.36891    0.59822    1.000
    N145     N        0.31530    0.49453    0.62778    1.000
    C105     C        0.25060    0.48255    0.61361    1.000
    N146     N        0.22210    0.45872    0.62938    1.000
    N147     N        0.26926    0.45600    0.65329    1.000
    N148     N        0.32690    0.47812    0.65231    1.000
    N149     N        0.03537    0.45163    0.52447    1.000
    N150     N        0.00750    0.44224    0.49838    1.000
    N151     N        0.04430    0.45930    0.47774    1.000
    N152     N        0.09490    0.47923    0.49108    1.000
    C106     C        0.08938    0.47448    0.51996    1.000
    N153     N        0.22490    0.61853    0.53153    1.000
    N154     N        0.29310    0.61507    0.54687    1.000
    N155     N        0.29710    0.58603    0.55754    1.000
    N156     N        0.35140    0.38740    0.72128    1.000
    N157     N        0.33500    0.39574    0.69324    1.000
    C107     C        0.52287    0.36390    0.58120    1.000
    N158     N        0.53170    0.37230    0.55321    1.000
    N159     N        0.60621    0.36321    0.54426    1.000
    N160     N        0.64343    0.34919    0.56674    1.000
    N161     N        0.59194    0.34961    0.58956    1.000
    C108     C        0.22920    0.57175    0.54741    1.000
    N162     N        0.18240    0.59127    0.53126    1.000
    Cu19     Cu       0.24882    0.92879    0.18755    1.000
    Cu20     Cu       0.31845    0.90796    0.26052    1.000
    C109     C        0.21670    0.99541    0.08652    1.000
    C110     C        0.16770    0.97863    0.06749    1.000
    H37      H        0.15380    0.95830    0.07220    1.000
    C111     C        0.13840    0.99157    0.04142    1.000
    C112     C        0.15910    0.02226    0.03482    1.000
    H38      H        0.14000    0.03130    0.01750    1.000
    C113     C        0.20790    0.03926    0.05386    1.000
    C114     C        0.23820    0.02553    0.07950    1.000
    H39      H        0.27300    0.03670    0.09190    1.000
    C115     C        0.44740    0.86899    0.12888    1.000
    H40      H        0.49600    0.86500    0.13910    1.000
    C116     C        0.44770    0.86891    0.09822    1.000
    N163     N        0.31530    0.99453    0.12778    1.000
    C117     C        0.25060    0.98255    0.11361    1.000
    N164     N        0.22210    0.95872    0.12938    1.000
    N165     N        0.26926    0.95600    0.15329    1.000
    N166     N        0.32690    0.97812    0.15231    1.000
    N167     N        0.03537    0.95163    0.02447    1.000
    N168     N        0.00750    0.94224    0.99838    1.000
    N169     N        0.04430    0.95930    0.97774    1.000
    N170     N        0.09490    0.97923    0.99108    1.000
    C118     C        0.08938    0.97448    0.01996    1.000
    N171     N        0.22490    0.11853    0.03153    1.000
    N172     N        0.29310    0.11507    0.04687    1.000
    N173     N        0.29710    0.08603    0.05754    1.000
    N174     N        0.35140    0.88740    0.22128    1.000
    N175     N        0.33500    0.89574    0.19324    1.000
    C119     C        0.52287    0.86390    0.08120    1.000
    N176     N        0.53170    0.87230    0.05321    1.000
    N177     N        0.60621    0.86321    0.04426    1.000
    N178     N        0.64343    0.84919    0.06674    1.000
    N179     N        0.59194    0.84961    0.08956    1.000
    C120     C        0.22920    0.07175    0.04741    1.000
    N180     N        0.18240    0.09127    0.03126    1.000
    Cu21     Cu       0.74882    0.42879    0.18755    1.000
    Cu22     Cu       0.81845    0.40796    0.26052    1.000
    C121     C        0.71670    0.49541    0.08652    1.000
    C122     C        0.66770    0.47863    0.06749    1.000
    H41      H        0.65380    0.45830    0.07220    1.000
    C123     C        0.63840    0.49157    0.04142    1.000
    C124     C        0.65910    0.52226    0.03482    1.000
    H42      H        0.64000    0.53130    0.01750    1.000
    C125     C        0.70790    0.53926    0.05386    1.000
    C126     C        0.73820    0.52553    0.07950    1.000
    H43      H        0.77300    0.53670    0.09190    1.000
    C127     C        0.94740    0.36899    0.12888    1.000
    H44      H        0.99600    0.36500    0.13910    1.000
    C128     C        0.94770    0.36891    0.09822    1.000
    N181     N        0.81530    0.49453    0.12778    1.000
    C129     C        0.75060    0.48255    0.11361    1.000
    N182     N        0.72210    0.45872    0.12938    1.000
    N183     N        0.76926    0.45600    0.15329    1.000
    N184     N        0.82690    0.47812    0.15231    1.000
    N185     N        0.53537    0.45163    0.02447    1.000
    N186     N        0.50750    0.44224    0.99838    1.000
    N187     N        0.54430    0.45930    0.97774    1.000
    N188     N        0.59490    0.47923    0.99108    1.000
    C130     C        0.58938    0.47448    0.01996    1.000
    N189     N        0.72490    0.61853    0.03153    1.000
    N190     N        0.79310    0.61507    0.04687    1.000
    N191     N        0.79710    0.58603    0.05754    1.000
    N192     N        0.85140    0.38740    0.22128    1.000
    N193     N        0.83500    0.39574    0.19324    1.000
    C131     C        0.02287    0.36390    0.08120    1.000
    N194     N        0.03170    0.37230    0.05321    1.000
    N195     N        0.10621    0.36321    0.04426    1.000
    N196     N        0.14343    0.34919    0.06674    1.000
    N197     N        0.09194    0.34961    0.08956    1.000
    C132     C        0.72920    0.57175    0.04741    1.000
    N198     N        0.68240    0.59127    0.03126    1.000
    Cu23     Cu       0.74882    0.92879    0.68755    1.000
    Cu24     Cu       0.81845    0.90796    0.76052    1.000
    C133     C        0.71670    0.99541    0.58652    1.000
    C134     C        0.66770    0.97863    0.56749    1.000
    H45      H        0.65380    0.95830    0.57220    1.000
    C135     C        0.63840    0.99157    0.54142    1.000
    C136     C        0.65910    0.02226    0.53482    1.000
    H46      H        0.64000    0.03130    0.51750    1.000
    C137     C        0.70790    0.03926    0.55386    1.000
    C138     C        0.73820    0.02553    0.57950    1.000
    H47      H        0.77300    0.03670    0.59190    1.000
    C139     C        0.94740    0.86899    0.62888    1.000
    H48      H        0.99600    0.86500    0.63910    1.000
    C140     C        0.94770    0.86891    0.59822    1.000
    N199     N        0.81530    0.99453    0.62778    1.000
    C141     C        0.75060    0.98255    0.61361    1.000
    N200     N        0.72210    0.95872    0.62938    1.000
    N201     N        0.76926    0.95600    0.65329    1.000
    N202     N        0.82690    0.97812    0.65231    1.000
    N203     N        0.53537    0.95163    0.52447    1.000
    N204     N        0.50750    0.94224    0.49838    1.000
    N205     N        0.54430    0.95930    0.47774    1.000
    N206     N        0.59490    0.97923    0.49108    1.000
    C142     C        0.58938    0.97448    0.51996    1.000
    N207     N        0.72490    0.11853    0.53153    1.000
    N208     N        0.79310    0.11507    0.54687    1.000
    N209     N        0.79710    0.08603    0.55754    1.000
    N210     N        0.85140    0.88740    0.72128    1.000
    N211     N        0.83500    0.89574    0.69324    1.000
    C143     C        0.02287    0.86390    0.58120    1.000
    N212     N        0.03170    0.87230    0.55321    1.000
    N213     N        0.10621    0.86321    0.54426    1.000
    N214     N        0.14343    0.84919    0.56674    1.000
    N215     N        0.09194    0.84961    0.58956    1.000
    C144     C        0.72920    0.07175    0.54741    1.000
    N216     N        0.68240    0.09127    0.53126    1.000
    Cu25     Cu       0.50118    0.32121    0.68755    1.000
    Cu26     Cu       0.43155    0.34204    0.76052    1.000
    C145     C        0.53330    0.25459    0.58652    1.000
    C146     C        0.58230    0.27137    0.56749    1.000
    H49      H        0.59620    0.29170    0.57220    1.000
    C147     C        0.61160    0.25843    0.54142    1.000
    C148     C        0.59090    0.22774    0.53482    1.000
    H50      H        0.61000    0.21870    0.51750    1.000
    C149     C        0.54210    0.21074    0.55386    1.000
    C150     C        0.51180    0.22447    0.57950    1.000
    H51      H        0.47700    0.21330    0.59190    1.000
    C151     C        0.30260    0.38101    0.62888    1.000
    H52      H        0.25400    0.38500    0.63910    1.000
    C152     C        0.30230    0.38109    0.59822    1.000
    N217     N        0.43470    0.25547    0.62778    1.000
    C153     C        0.49940    0.26745    0.61361    1.000
    N218     N        0.52790    0.29128    0.62938    1.000
    N219     N        0.48074    0.29400    0.65329    1.000
    N220     N        0.42310    0.27188    0.65231    1.000
    N221     N        0.71463    0.29837    0.52447    1.000
    N222     N        0.74250    0.30776    0.49838    1.000
    N223     N        0.70570    0.29070    0.47774    1.000
    N224     N        0.65510    0.27077    0.49108    1.000
    C154     C        0.66062    0.27552    0.51996    1.000
    N225     N        0.52510    0.13147    0.53153    1.000
    N226     N        0.45690    0.13493    0.54687    1.000
    N227     N        0.45290    0.16397    0.55754    1.000
    N228     N        0.39860    0.36260    0.72128    1.000
    N229     N        0.41500    0.35426    0.69324    1.000
    C155     C        0.22713    0.38610    0.58120    1.000
    N230     N        0.21830    0.37770    0.55321    1.000
    N231     N        0.14379    0.38679    0.54426    1.000
    N232     N        0.10657    0.40081    0.56674    1.000
    N233     N        0.15806    0.40039    0.58956    1.000
    C156     C        0.52080    0.17825    0.54741    1.000
    N234     N        0.56760    0.15873    0.53126    1.000
    Cu27     Cu       0.50118    0.82121    0.18755    1.000
    Cu28     Cu       0.43155    0.84204    0.26052    1.000
    C157     C        0.53330    0.75459    0.08652    1.000
    C158     C        0.58230    0.77137    0.06749    1.000
    H53      H        0.59620    0.79170    0.07220    1.000
    C159     C        0.61160    0.75843    0.04142    1.000
    C160     C        0.59090    0.72774    0.03482    1.000
    H54      H        0.61000    0.71870    0.01750    1.000
    C161     C        0.54210    0.71074    0.05386    1.000
    C162     C        0.51180    0.72447    0.07950    1.000
    H55      H        0.47700    0.71330    0.09190    1.000
    C163     C        0.30260    0.88101    0.12888    1.000
    H56      H        0.25400    0.88500    0.13910    1.000
    C164     C        0.30230    0.88109    0.09822    1.000
    N235     N        0.43470    0.75547    0.12778    1.000
    C165     C        0.49940    0.76745    0.11361    1.000
    N236     N        0.52790    0.79128    0.12938    1.000
    N237     N        0.48074    0.79400    0.15329    1.000
    N238     N        0.42310    0.77188    0.15231    1.000
    N239     N        0.71463    0.79837    0.02447    1.000
    N240     N        0.74250    0.80776    0.99838    1.000
    N241     N        0.70570    0.79070    0.97774    1.000
    N242     N        0.65510    0.77077    0.99108    1.000
    C166     C        0.66062    0.77552    0.01996    1.000
    N243     N        0.52510    0.63147    0.03153    1.000
    N244     N        0.45690    0.63493    0.04687    1.000
    N245     N        0.45290    0.66397    0.05754    1.000
    N246     N        0.39860    0.86260    0.22128    1.000
    N247     N        0.41500    0.85426    0.19324    1.000
    C167     C        0.22713    0.88610    0.08120    1.000
    N248     N        0.21830    0.87770    0.05321    1.000
    N249     N        0.14379    0.88679    0.04426    1.000
    N250     N        0.10657    0.90081    0.06674    1.000
    N251     N        0.15806    0.90039    0.08956    1.000
    C168     C        0.52080    0.67825    0.04741    1.000
    N252     N        0.56760    0.65873    0.03126    1.000
    Cu29     Cu       0.00118    0.32121    0.18755    1.000
    Cu30     Cu       0.93155    0.34204    0.26052    1.000
    C169     C        0.03330    0.25459    0.08652    1.000
    C170     C        0.08230    0.27137    0.06749    1.000
    H57      H        0.09620    0.29170    0.07220    1.000
    C171     C        0.11160    0.25843    0.04142    1.000
    C172     C        0.09090    0.22774    0.03482    1.000
    H58      H        0.11000    0.21870    0.01750    1.000
    C173     C        0.04210    0.21074    0.05386    1.000
    C174     C        0.01180    0.22447    0.07950    1.000
    H59      H        0.97700    0.21330    0.09190    1.000
    C175     C        0.80260    0.38101    0.12888    1.000
    H60      H        0.75400    0.38500    0.13910    1.000
    C176     C        0.80230    0.38109    0.09822    1.000
    N253     N        0.93470    0.25547    0.12778    1.000
    C177     C        0.99940    0.26745    0.11361    1.000
    N254     N        0.02790    0.29128    0.12938    1.000
    N255     N        0.98074    0.29400    0.15329    1.000
    N256     N        0.92310    0.27188    0.15231    1.000
    N257     N        0.21463    0.29837    0.02447    1.000
    N258     N        0.24250    0.30776    0.99838    1.000
    N259     N        0.20570    0.29070    0.97774    1.000
    N260     N        0.15510    0.27077    0.99108    1.000
    C178     C        0.16062    0.27552    0.01996    1.000
    N261     N        0.02510    0.13147    0.03153    1.000
    N262     N        0.95690    0.13493    0.04687    1.000
    N263     N        0.95290    0.16397    0.05754    1.000
    N264     N        0.89860    0.36260    0.22128    1.000
    N265     N        0.91500    0.35426    0.19324    1.000
    C179     C        0.72713    0.38610    0.08120    1.000
    N266     N        0.71830    0.37770    0.05321    1.000
    N267     N        0.64379    0.38679    0.04426    1.000
    N268     N        0.60657    0.40081    0.06674    1.000
    N269     N        0.65806    0.40039    0.08956    1.000
    C180     C        0.02080    0.17825    0.04741    1.000
    N270     N        0.06760    0.15873    0.03126    1.000
    Cu31     Cu       0.00118    0.82121    0.68755    1.000
    Cu32     Cu       0.93155    0.84204    0.76052    1.000
    C181     C        0.03330    0.75459    0.58652    1.000
    C182     C        0.08230    0.77137    0.56749    1.000
    H61      H        0.09620    0.79170    0.57220    1.000
    C183     C        0.11160    0.75843    0.54142    1.000
    C184     C        0.09090    0.72774    0.53482    1.000
    H62      H        0.11000    0.71870    0.51750    1.000
    C185     C        0.04210    0.71074    0.55386    1.000
    C186     C        0.01180    0.72447    0.57950    1.000
    H63      H        0.97700    0.71330    0.59190    1.000
    C187     C        0.80260    0.88101    0.62888    1.000
    H64      H        0.75400    0.88500    0.63910    1.000
    C188     C        0.80230    0.88109    0.59822    1.000
    N271     N        0.93470    0.75547    0.62778    1.000
    C189     C        0.99940    0.76745    0.61361    1.000
    N272     N        0.02790    0.79128    0.62938    1.000
    N273     N        0.98074    0.79400    0.65329    1.000
    N274     N        0.92310    0.77188    0.65231    1.000
    N275     N        0.21463    0.79837    0.52447    1.000
    N276     N        0.24250    0.80776    0.49838    1.000
    N277     N        0.20570    0.79070    0.47774    1.000
    N278     N        0.15510    0.77077    0.49108    1.000
    C190     C        0.16062    0.77552    0.51996    1.000
    N279     N        0.02510    0.63147    0.53153    1.000
    N280     N        0.95690    0.63493    0.54687    1.000
    N281     N        0.95290    0.66397    0.55754    1.000
    N282     N        0.89860    0.86260    0.72128    1.000
    N283     N        0.91500    0.85426    0.69324    1.000
    C191     C        0.72713    0.88610    0.58120    1.000
    N284     N        0.71830    0.87770    0.55321    1.000
    N285     N        0.64379    0.88679    0.54426    1.000
    N286     N        0.60657    0.90081    0.56674    1.000
    N287     N        0.65806    0.90039    0.58956    1.000
    C192     C        0.02080    0.67825    0.54741    1.000
    N288     N        0.06760    0.65873    0.53126    1.000
    Cu33     Cu       0.49882    0.57121    0.93755    1.000
    Cu34     Cu       0.56845    0.59204    0.01052    1.000
    C193     C        0.46670    0.50459    0.83652    1.000
    C194     C        0.41770    0.52137    0.81749    1.000
    H65      H        0.40380    0.54170    0.82220    1.000
    C195     C        0.38840    0.50843    0.79142    1.000
    C196     C        0.40910    0.47774    0.78482    1.000
    H66      H        0.39000    0.46870    0.76750    1.000
    C197     C        0.45790    0.46074    0.80386    1.000
    C198     C        0.48820    0.47447    0.82950    1.000
    H67      H        0.52300    0.46330    0.84190    1.000
    C199     C        0.69740    0.63101    0.87888    1.000
    H68      H        0.74600    0.63500    0.88910    1.000
    C200     C        0.69770    0.63109    0.84822    1.000
    N289     N        0.56530    0.50547    0.87778    1.000
    C201     C        0.50060    0.51745    0.86361    1.000
    N290     N        0.47210    0.54128    0.87938    1.000
    N291     N        0.51926    0.54400    0.90329    1.000
    N292     N        0.57690    0.52188    0.90231    1.000
    N293     N        0.28537    0.54837    0.77447    1.000
    N294     N        0.25750    0.55776    0.74838    1.000
    N295     N        0.29430    0.54070    0.72774    1.000
    N296     N        0.34490    0.52077    0.74108    1.000
    C202     C        0.33938    0.52552    0.76996    1.000
    N297     N        0.47490    0.38147    0.78153    1.000
    N298     N        0.54310    0.38493    0.79687    1.000
    N299     N        0.54710    0.41397    0.80754    1.000
    N300     N        0.60140    0.61260    0.97128    1.000
    N301     N        0.58500    0.60426    0.94324    1.000
    C203     C        0.77287    0.63610    0.83120    1.000
    N302     N        0.78170    0.62770    0.80321    1.000
    N303     N        0.85621    0.63679    0.79426    1.000
    N304     N        0.89343    0.65081    0.81674    1.000
    N305     N        0.84194    0.65039    0.83956    1.000
    C204     C        0.47920    0.42825    0.79741    1.000
    N306     N        0.43240    0.40873    0.78126    1.000
    Cu35     Cu       0.49882    0.07121    0.43755    1.000
    Cu36     Cu       0.56845    0.09204    0.51052    1.000
    C205     C        0.46670    0.00459    0.33652    1.000
    C206     C        0.41770    0.02137    0.31749    1.000
    H69      H        0.40380    0.04170    0.32220    1.000
    C207     C        0.38840    0.00843    0.29142    1.000
    C208     C        0.40910    0.97774    0.28482    1.000
    H70      H        0.39000    0.96870    0.26750    1.000
    C209     C        0.45790    0.96074    0.30386    1.000
    C210     C        0.48820    0.97447    0.32950    1.000
    H71      H        0.52300    0.96330    0.34190    1.000
    C211     C        0.69740    0.13101    0.37888    1.000
    H72      H        0.74600    0.13500    0.38910    1.000
    C212     C        0.69770    0.13109    0.34822    1.000
    N307     N        0.56530    0.00547    0.37778    1.000
    C213     C        0.50060    0.01745    0.36361    1.000
    N308     N        0.47210    0.04128    0.37938    1.000
    N309     N        0.51926    0.04400    0.40329    1.000
    N310     N        0.57690    0.02188    0.40231    1.000
    N311     N        0.28537    0.04837    0.27447    1.000
    N312     N        0.25750    0.05776    0.24838    1.000
    N313     N        0.29430    0.04070    0.22774    1.000
    N314     N        0.34490    0.02077    0.24108    1.000
    C214     C        0.33938    0.02552    0.26996    1.000
    N315     N        0.47490    0.88147    0.28153    1.000
    N316     N        0.54310    0.88493    0.29687    1.000
    N317     N        0.54710    0.91397    0.30754    1.000
    N318     N        0.60140    0.11260    0.47128    1.000
    N319     N        0.58500    0.10426    0.44324    1.000
    C215     C        0.77287    0.13610    0.33120    1.000
    N320     N        0.78170    0.12770    0.30321    1.000
    N321     N        0.85621    0.13679    0.29426    1.000
    N322     N        0.89343    0.15081    0.31674    1.000
    N323     N        0.84194    0.15039    0.33956    1.000
    C216     C        0.47920    0.92825    0.29741    1.000
    N324     N        0.43240    0.90873    0.28126    1.000
    Cu37     Cu       0.99882    0.57121    0.43755    1.000
    Cu38     Cu       0.06845    0.59204    0.51052    1.000
    C217     C        0.96670    0.50459    0.33652    1.000
    C218     C        0.91770    0.52137    0.31749    1.000
    H73      H        0.90380    0.54170    0.32220    1.000
    C219     C        0.88840    0.50843    0.29142    1.000
    C220     C        0.90910    0.47774    0.28482    1.000
    H74      H        0.89000    0.46870    0.26750    1.000
    C221     C        0.95790    0.46074    0.30386    1.000
    C222     C        0.98820    0.47447    0.32950    1.000
    H75      H        0.02300    0.46330    0.34190    1.000
    C223     C        0.19740    0.63101    0.37888    1.000
    H76      H        0.24600    0.63500    0.38910    1.000
    C224     C        0.19770    0.63109    0.34822    1.000
    N325     N        0.06530    0.50547    0.37778    1.000
    C225     C        0.00060    0.51745    0.36361    1.000
    N326     N        0.97210    0.54128    0.37938    1.000
    N327     N        0.01926    0.54400    0.40329    1.000
    N328     N        0.07690    0.52188    0.40231    1.000
    N329     N        0.78537    0.54837    0.27447    1.000
    N330     N        0.75750    0.55776    0.24838    1.000
    N331     N        0.79430    0.54070    0.22774    1.000
    N332     N        0.84490    0.52077    0.24108    1.000
    C226     C        0.83938    0.52552    0.26996    1.000
    N333     N        0.97490    0.38147    0.28153    1.000
    N334     N        0.04310    0.38493    0.29687    1.000
    N335     N        0.04710    0.41397    0.30754    1.000
    N336     N        0.10140    0.61260    0.47128    1.000
    N337     N        0.08500    0.60426    0.44324    1.000
    C227     C        0.27287    0.63610    0.33120    1.000
    N338     N        0.28170    0.62770    0.30321    1.000
    N339     N        0.35621    0.63679    0.29426    1.000
    N340     N        0.39343    0.65081    0.31674    1.000
    N341     N        0.34194    0.65039    0.33956    1.000
    C228     C        0.97920    0.42825    0.29741    1.000
    N342     N        0.93240    0.40873    0.28126    1.000
    Cu39     Cu       0.99882    0.07121    0.93755    1.000
    Cu40     Cu       0.06845    0.09204    0.01052    1.000
    C229     C        0.96670    0.00459    0.83652    1.000
    C230     C        0.91770    0.02137    0.81749    1.000
    H77      H        0.90380    0.04170    0.82220    1.000
    C231     C        0.88840    0.00843    0.79142    1.000
    C232     C        0.90910    0.97774    0.78482    1.000
    H78      H        0.89000    0.96870    0.76750    1.000
    C233     C        0.95790    0.96074    0.80386    1.000
    C234     C        0.98820    0.97447    0.82950    1.000
    H79      H        0.02300    0.96330    0.84190    1.000
    C235     C        0.19740    0.13101    0.87888    1.000
    H80      H        0.24600    0.13500    0.88910    1.000
    C236     C        0.19770    0.13109    0.84822    1.000
    N343     N        0.06530    0.00547    0.87778    1.000
    C237     C        0.00060    0.01745    0.86361    1.000
    N344     N        0.97210    0.04128    0.87938    1.000
    N345     N        0.01926    0.04400    0.90329    1.000
    N346     N        0.07690    0.02188    0.90231    1.000
    N347     N        0.78537    0.04837    0.77447    1.000
    N348     N        0.75750    0.05776    0.74838    1.000
    N349     N        0.79430    0.04070    0.72774    1.000
    N350     N        0.84490    0.02077    0.74108    1.000
    C238     C        0.83938    0.02552    0.76996    1.000
    N351     N        0.97490    0.88147    0.78153    1.000
    N352     N        0.04310    0.88493    0.79687    1.000
    N353     N        0.04710    0.91397    0.80754    1.000
    N354     N        0.10140    0.11260    0.97128    1.000
    N355     N        0.08500    0.10426    0.94324    1.000
    C239     C        0.27287    0.13610    0.83120    1.000
    N356     N        0.28170    0.12770    0.80321    1.000
    N357     N        0.35621    0.13679    0.79426    1.000
    N358     N        0.39343    0.15081    0.81674    1.000
    N359     N        0.34194    0.15039    0.83956    1.000
    C240     C        0.97920    0.92825    0.79741    1.000
    N360     N        0.93240    0.90873    0.78126    1.000
    Cu41     Cu       0.75118    0.67879    0.93755    1.000
    Cu42     Cu       0.68155    0.65796    0.01052    1.000
    C241     C        0.78330    0.74541    0.83652    1.000
    C242     C        0.83230    0.72863    0.81749    1.000
    H81      H        0.84620    0.70830    0.82220    1.000
    C243     C        0.86160    0.74157    0.79142    1.000
    C244     C        0.84090    0.77226    0.78482    1.000
    H82      H        0.86000    0.78130    0.76750    1.000
    C245     C        0.79210    0.78926    0.80386    1.000
    C246     C        0.76180    0.77553    0.82950    1.000
    H83      H        0.72700    0.78670    0.84190    1.000
    C247     C        0.55260    0.61899    0.87888    1.000
    H84      H        0.50400    0.61500    0.88910    1.000
    C248     C        0.55230    0.61891    0.84822    1.000
    N361     N        0.68470    0.74453    0.87778    1.000
    C249     C        0.74940    0.73255    0.86361    1.000
    N362     N        0.77790    0.70872    0.87938    1.000
    N363     N        0.73074    0.70600    0.90329    1.000
    N364     N        0.67310    0.72812    0.90231    1.000
    N365     N        0.96463    0.70163    0.77447    1.000
    N366     N        0.99250    0.69224    0.74838    1.000
    N367     N        0.95570    0.70930    0.72774    1.000
    N368     N        0.90510    0.72923    0.74108    1.000
    C250     C        0.91062    0.72448    0.76996    1.000
    N369     N        0.77510    0.86853    0.78153    1.000
    N370     N        0.70690    0.86507    0.79687    1.000
    N371     N        0.70290    0.83603    0.80754    1.000
    N372     N        0.64860    0.63740    0.97128    1.000
    N373     N        0.66500    0.64574    0.94324    1.000
    C251     C        0.47713    0.61390    0.83120    1.000
    N374     N        0.46830    0.62230    0.80321    1.000
    N375     N        0.39379    0.61321    0.79426    1.000
    N376     N        0.35657    0.59919    0.81674    1.000
    N377     N        0.40806    0.59961    0.83956    1.000
    C252     C        0.77080    0.82175    0.79741    1.000
    N378     N        0.81760    0.84127    0.78126    1.000
    Cu43     Cu       0.75118    0.17879    0.43755    1.000
    Cu44     Cu       0.68155    0.15796    0.51052    1.000
    C253     C        0.78330    0.24541    0.33652    1.000
    C254     C        0.83230    0.22863    0.31749    1.000
    H85      H        0.84620    0.20830    0.32220    1.000
    C255     C        0.86160    0.24157    0.29142    1.000
    C256     C        0.84090    0.27226    0.28482    1.000
    H86      H        0.86000    0.28130    0.26750    1.000
    C257     C        0.79210    0.28926    0.30386    1.000
    C258     C        0.76180    0.27553    0.32950    1.000
    H87      H        0.72700    0.28670    0.34190    1.000
    C259     C        0.55260    0.11899    0.37888    1.000
    H88      H        0.50400    0.11500    0.38910    1.000
    C260     C        0.55230    0.11891    0.34822    1.000
    N379     N        0.68470    0.24453    0.37778    1.000
    C261     C        0.74940    0.23255    0.36361    1.000
    N380     N        0.77790    0.20872    0.37938    1.000
    N381     N        0.73074    0.20600    0.40329    1.000
    N382     N        0.67310    0.22812    0.40231    1.000
    N383     N        0.96463    0.20163    0.27447    1.000
    N384     N        0.99250    0.19224    0.24838    1.000
    N385     N        0.95570    0.20930    0.22774    1.000
    N386     N        0.90510    0.22923    0.24108    1.000
    C262     C        0.91062    0.22448    0.26996    1.000
    N387     N        0.77510    0.36853    0.28153    1.000
    N388     N        0.70690    0.36507    0.29687    1.000
    N389     N        0.70290    0.33603    0.30754    1.000
    N390     N        0.64860    0.13740    0.47128    1.000
    N391     N        0.66500    0.14574    0.44324    1.000
    C263     C        0.47713    0.11390    0.33120    1.000
    N392     N        0.46830    0.12230    0.30321    1.000
    N393     N        0.39379    0.11321    0.29426    1.000
    N394     N        0.35657    0.09919    0.31674    1.000
    N395     N        0.40806    0.09961    0.33956    1.000
    C264     C        0.77080    0.32175    0.29741    1.000
    N396     N        0.81760    0.34127    0.28126    1.000
    Cu45     Cu       0.25118    0.67879    0.43755    1.000
    Cu46     Cu       0.18155    0.65796    0.51052    1.000
    C265     C        0.28330    0.74541    0.33652    1.000
    C266     C        0.33230    0.72863    0.31749    1.000
    H89      H        0.34620    0.70830    0.32220    1.000
    C267     C        0.36160    0.74157    0.29142    1.000
    C268     C        0.34090    0.77226    0.28482    1.000
    H90      H        0.36000    0.78130    0.26750    1.000
    C269     C        0.29210    0.78926    0.30386    1.000
    C270     C        0.26180    0.77553    0.32950    1.000
    H91      H        0.22700    0.78670    0.34190    1.000
    C271     C        0.05260    0.61899    0.37888    1.000
    H92      H        0.00400    0.61500    0.38910    1.000
    C272     C        0.05230    0.61891    0.34822    1.000
    N397     N        0.18470    0.74453    0.37778    1.000
    C273     C        0.24940    0.73255    0.36361    1.000
    N398     N        0.27790    0.70872    0.37938    1.000
    N399     N        0.23074    0.70600    0.40329    1.000
    N400     N        0.17310    0.72812    0.40231    1.000
    N401     N        0.46463    0.70163    0.27447    1.000
    N402     N        0.49250    0.69224    0.24838    1.000
    N403     N        0.45570    0.70930    0.22774    1.000
    N404     N        0.40510    0.72923    0.24108    1.000
    C274     C        0.41062    0.72448    0.26996    1.000
    N405     N        0.27510    0.86853    0.28153    1.000
    N406     N        0.20690    0.86507    0.29687    1.000
    N407     N        0.20290    0.83603    0.30754    1.000
    N408     N        0.14860    0.63740    0.47128    1.000
    N409     N        0.16500    0.64574    0.44324    1.000
    C275     C        0.97713    0.61390    0.33120    1.000
    N410     N        0.96830    0.62230    0.30321    1.000
    N411     N        0.89379    0.61321    0.29426    1.000
    N412     N        0.85657    0.59919    0.31674    1.000
    N413     N        0.90806    0.59961    0.33956    1.000
    C276     C        0.27080    0.82175    0.29741    1.000
    N414     N        0.31760    0.84127    0.28126    1.000
    Cu47     Cu       0.25118    0.17879    0.93755    1.000
    Cu48     Cu       0.18155    0.15796    0.01052    1.000
    C277     C        0.28330    0.24541    0.83652    1.000
    C278     C        0.33230    0.22863    0.81749    1.000
    H93      H        0.34620    0.20830    0.82220    1.000
    C279     C        0.36160    0.24157    0.79142    1.000
    C280     C        0.34090    0.27226    0.78482    1.000
    H94      H        0.36000    0.28130    0.76750    1.000
    C281     C        0.29210    0.28926    0.80386    1.000
    C282     C        0.26180    0.27553    0.82950    1.000
    H95      H        0.22700    0.28670    0.84190    1.000
    C283     C        0.05260    0.11899    0.87888    1.000
    H96      H        0.00400    0.11500    0.88910    1.000
    C284     C        0.05230    0.11891    0.84822    1.000
    N415     N        0.18470    0.24453    0.87778    1.000
    C285     C        0.24940    0.23255    0.86361    1.000
    N416     N        0.27790    0.20872    0.87938    1.000
    N417     N        0.23074    0.20600    0.90329    1.000
    N418     N        0.17310    0.22812    0.90231    1.000
    N419     N        0.46463    0.20163    0.77447    1.000
    N420     N        0.49250    0.19224    0.74838    1.000
    N421     N        0.45570    0.20930    0.72774    1.000
    N422     N        0.40510    0.22923    0.74108    1.000
    C286     C        0.41062    0.22448    0.76996    1.000
    N423     N        0.27510    0.36853    0.78153    1.000
    N424     N        0.20690    0.36507    0.79687    1.000
    N425     N        0.20290    0.33603    0.80754    1.000
    N426     N        0.14860    0.13740    0.97128    1.000
    N427     N        0.16500    0.14574    0.94324    1.000
    C287     C        0.97713    0.11390    0.83120    1.000
    N428     N        0.96830    0.12230    0.80321    1.000
    N429     N        0.89379    0.11321    0.79426    1.000
    N430     N        0.85657    0.09919    0.81674    1.000
    N431     N        0.90806    0.09961    0.83956    1.000
    C288     C        0.27080    0.32175    0.79741    1.000
    N432     N        0.31760    0.34127    0.78126    1.000
    Cu49     Cu       0.75118    0.57121    0.31245    1.000
    Cu50     Cu       0.68155    0.59204    0.23948    1.000
    C289     C        0.78330    0.50459    0.41348    1.000
    C290     C        0.83230    0.52137    0.43251    1.000
    H97      H        0.84620    0.54170    0.42780    1.000
    C291     C        0.86160    0.50843    0.45858    1.000
    C292     C        0.84090    0.47774    0.46518    1.000
    H98      H        0.86000    0.46870    0.48250    1.000
    C293     C        0.79210    0.46074    0.44614    1.000
    C294     C        0.76180    0.47447    0.42050    1.000
    H99      H        0.72700    0.46330    0.40810    1.000
    C295     C        0.55260    0.63101    0.37112    1.000
    H100     H        0.50400    0.63500    0.36090    1.000
    C296     C        0.55230    0.63109    0.40178    1.000
    N433     N        0.68470    0.50547    0.37222    1.000
    C297     C        0.74940    0.51745    0.38639    1.000
    N434     N        0.77790    0.54128    0.37062    1.000
    N435     N        0.73074    0.54400    0.34671    1.000
    N436     N        0.67310    0.52188    0.34769    1.000
    N437     N        0.96463    0.54837    0.47553    1.000
    N438     N        0.99250    0.55776    0.50162    1.000
    N439     N        0.95570    0.54070    0.52226    1.000
    N440     N        0.90510    0.52077    0.50892    1.000
    C298     C        0.91062    0.52552    0.48004    1.000
    N441     N        0.77510    0.38147    0.46847    1.000
    N442     N        0.70690    0.38493    0.45313    1.000
    N443     N        0.70290    0.41397    0.44246    1.000
    N444     N        0.64860    0.61260    0.27872    1.000
    N445     N        0.66500    0.60426    0.30676    1.000
    C299     C        0.47713    0.63610    0.41880    1.000
    N446     N        0.46830    0.62770    0.44679    1.000
    N447     N        0.39379    0.63679    0.45574    1.000
    N448     N        0.35657    0.65081    0.43326    1.000
    N449     N        0.40806    0.65039    0.41044    1.000
    C300     C        0.77080    0.42825    0.45259    1.000
    N450     N        0.81760    0.40873    0.46874    1.000
    Cu51     Cu       0.75118    0.07121    0.81245    1.000
    Cu52     Cu       0.68155    0.09204    0.73948    1.000
    C301     C        0.78330    0.00459    0.91348    1.000
    C302     C        0.83230    0.02137    0.93251    1.000
    H101     H        0.84620    0.04170    0.92780    1.000
    C303     C        0.86160    0.00843    0.95858    1.000
    C304     C        0.84090    0.97774    0.96518    1.000
    H102     H        0.86000    0.96870    0.98250    1.000
    C305     C        0.79210    0.96074    0.94614    1.000
    C306     C        0.76180    0.97447    0.92050    1.000
    H103     H        0.72700    0.96330    0.90810    1.000
    C307     C        0.55260    0.13101    0.87112    1.000
    H104     H        0.50400    0.13500    0.86090    1.000
    C308     C        0.55230    0.13109    0.90178    1.000
    N451     N        0.68470    0.00547    0.87222    1.000
    C309     C        0.74940    0.01745    0.88639    1.000
    N452     N        0.77790    0.04128    0.87062    1.000
    N453     N        0.73074    0.04400    0.84671    1.000
    N454     N        0.67310    0.02188    0.84769    1.000
    N455     N        0.96463    0.04837    0.97553    1.000
    N456     N        0.99250    0.05776    0.00162    1.000
    N457     N        0.95570    0.04070    0.02226    1.000
    N458     N        0.90510    0.02077    0.00892    1.000
    C310     C        0.91062    0.02552    0.98004    1.000
    N459     N        0.77510    0.88147    0.96847    1.000
    N460     N        0.70690    0.88493    0.95313    1.000
    N461     N        0.70290    0.91397    0.94246    1.000
    N462     N        0.64860    0.11260    0.77872    1.000
    N463     N        0.66500    0.10426    0.80676    1.000
    C311     C        0.47713    0.13610    0.91880    1.000
    N464     N        0.46830    0.12770    0.94679    1.000
    N465     N        0.39379    0.13679    0.95574    1.000
    N466     N        0.35657    0.15081    0.93326    1.000
    N467     N        0.40806    0.15039    0.91044    1.000
    C312     C        0.77080    0.92825    0.95259    1.000
    N468     N        0.81760    0.90873    0.96874    1.000
    Cu53     Cu       0.25118    0.57121    0.81245    1.000
    Cu54     Cu       0.18155    0.59204    0.73948    1.000
    C313     C        0.28330    0.50459    0.91348    1.000
    C314     C        0.33230    0.52137    0.93251    1.000
    H105     H        0.34620    0.54170    0.92780    1.000
    C315     C        0.36160    0.50843    0.95858    1.000
    C316     C        0.34090    0.47774    0.96518    1.000
    H106     H        0.36000    0.46870    0.98250    1.000
    C317     C        0.29210    0.46074    0.94614    1.000
    C318     C        0.26180    0.47447    0.92050    1.000
    H107     H        0.22700    0.46330    0.90810    1.000
    C319     C        0.05260    0.63101    0.87112    1.000
    H108     H        0.00400    0.63500    0.86090    1.000
    C320     C        0.05230    0.63109    0.90178    1.000
    N469     N        0.18470    0.50547    0.87222    1.000
    C321     C        0.24940    0.51745    0.88639    1.000
    N470     N        0.27790    0.54128    0.87062    1.000
    N471     N        0.23074    0.54400    0.84671    1.000
    N472     N        0.17310    0.52188    0.84769    1.000
    N473     N        0.46463    0.54837    0.97553    1.000
    N474     N        0.49250    0.55776    0.00162    1.000
    N475     N        0.45570    0.54070    0.02226    1.000
    N476     N        0.40510    0.52077    0.00892    1.000
    C322     C        0.41062    0.52552    0.98004    1.000
    N477     N        0.27510    0.38147    0.96847    1.000
    N478     N        0.20690    0.38493    0.95313    1.000
    N479     N        0.20290    0.41397    0.94246    1.000
    N480     N        0.14860    0.61260    0.77872    1.000
    N481     N        0.16500    0.60426    0.80676    1.000
    C323     C        0.97713    0.63610    0.91880    1.000
    N482     N        0.96830    0.62770    0.94679    1.000
    N483     N        0.89379    0.63679    0.95574    1.000
    N484     N        0.85657    0.65081    0.93326    1.000
    N485     N        0.90806    0.65039    0.91044    1.000
    C324     C        0.27080    0.42825    0.95259    1.000
    N486     N        0.31760    0.40873    0.96874    1.000
    Cu55     Cu       0.25118    0.07121    0.31245    1.000
    Cu56     Cu       0.18155    0.09204    0.23948    1.000
    C325     C        0.28330    0.00459    0.41348    1.000
    C326     C        0.33230    0.02137    0.43251    1.000
    H109     H        0.34620    0.04170    0.42780    1.000
    C327     C        0.36160    0.00843    0.45858    1.000
    C328     C        0.34090    0.97774    0.46518    1.000
    H110     H        0.36000    0.96870    0.48250    1.000
    C329     C        0.29210    0.96074    0.44614    1.000
    C330     C        0.26180    0.97447    0.42050    1.000
    H111     H        0.22700    0.96330    0.40810    1.000
    C331     C        0.05260    0.13101    0.37112    1.000
    H112     H        0.00400    0.13500    0.36090    1.000
    C332     C        0.05230    0.13109    0.40178    1.000
    N487     N        0.18470    0.00547    0.37222    1.000
    C333     C        0.24940    0.01745    0.38639    1.000
    N488     N        0.27790    0.04128    0.37062    1.000
    N489     N        0.23074    0.04400    0.34671    1.000
    N490     N        0.17310    0.02188    0.34769    1.000
    N491     N        0.46463    0.04837    0.47553    1.000
    N492     N        0.49250    0.05776    0.50162    1.000
    N493     N        0.45570    0.04070    0.52226    1.000
    N494     N        0.40510    0.02077    0.50892    1.000
    C334     C        0.41062    0.02552    0.48004    1.000
    N495     N        0.27510    0.88147    0.46847    1.000
    N496     N        0.20690    0.88493    0.45313    1.000
    N497     N        0.20290    0.91397    0.44246    1.000
    N498     N        0.14860    0.11260    0.27872    1.000
    N499     N        0.16500    0.10426    0.30676    1.000
    C335     C        0.97713    0.13610    0.41880    1.000
    N500     N        0.96830    0.12770    0.44679    1.000
    N501     N        0.89379    0.13679    0.45574    1.000
    N502     N        0.85657    0.15081    0.43326    1.000
    N503     N        0.90806    0.15039    0.41044    1.000
    C336     C        0.27080    0.92825    0.45259    1.000
    N504     N        0.31760    0.90873    0.46874    1.000
    Cu57     Cu       0.49882    0.67879    0.31245    1.000
    Cu58     Cu       0.56845    0.65796    0.23948    1.000
    C337     C        0.46670    0.74541    0.41348    1.000
    C338     C        0.41770    0.72863    0.43251    1.000
    H113     H        0.40380    0.70830    0.42780    1.000
    C339     C        0.38840    0.74157    0.45858    1.000
    C340     C        0.40910    0.77226    0.46518    1.000
    H114     H        0.39000    0.78130    0.48250    1.000
    C341     C        0.45790    0.78926    0.44614    1.000
    C342     C        0.48820    0.77553    0.42050    1.000
    H115     H        0.52300    0.78670    0.40810    1.000
    C343     C        0.69740    0.61899    0.37112    1.000
    H116     H        0.74600    0.61500    0.36090    1.000
    C344     C        0.69770    0.61891    0.40178    1.000
    N505     N        0.56530    0.74453    0.37222    1.000
    C345     C        0.50060    0.73255    0.38639    1.000
    N506     N        0.47210    0.70872    0.37062    1.000
    N507     N        0.51926    0.70600    0.34671    1.000
    N508     N        0.57690    0.72812    0.34769    1.000
    N509     N        0.28537    0.70163    0.47553    1.000
    N510     N        0.25750    0.69224    0.50162    1.000
    N511     N        0.29430    0.70930    0.52226    1.000
    N512     N        0.34490    0.72923    0.50892    1.000
    C346     C        0.33938    0.72448    0.48004    1.000
    N513     N        0.47490    0.86853    0.46847    1.000
    N514     N        0.54310    0.86507    0.45313    1.000
    N515     N        0.54710    0.83603    0.44246    1.000
    N516     N        0.60140    0.63740    0.27872    1.000
    N517     N        0.58500    0.64574    0.30676    1.000
    C347     C        0.77287    0.61390    0.41880    1.000
    N518     N        0.78170    0.62230    0.44679    1.000
    N519     N        0.85621    0.61321    0.45574    1.000
    N520     N        0.89343    0.59919    0.43326    1.000
    N521     N        0.84194    0.59961    0.41044    1.000
    C348     C        0.47920    0.82175    0.45259    1.000
    N522     N        0.43240    0.84127    0.46874    1.000
    Cu59     Cu       0.49882    0.17879    0.81245    1.000
    Cu60     Cu       0.56845    0.15796    0.73948    1.000
    C349     C        0.46670    0.24541    0.91348    1.000
    C350     C        0.41770    0.22863    0.93251    1.000
    H117     H        0.40380    0.20830    0.92780    1.000
    C351     C        0.38840    0.24157    0.95858    1.000
    C352     C        0.40910    0.27226    0.96518    1.000
    H118     H        0.39000    0.28130    0.98250    1.000
    C353     C        0.45790    0.28926    0.94614    1.000
    C354     C        0.48820    0.27553    0.92050    1.000
    H119     H        0.52300    0.28670    0.90810    1.000
    C355     C        0.69740    0.11899    0.87112    1.000
    H120     H        0.74600    0.11500    0.86090    1.000
    C356     C        0.69770    0.11891    0.90178    1.000
    N523     N        0.56530    0.24453    0.87222    1.000
    C357     C        0.50060    0.23255    0.88639    1.000
    N524     N        0.47210    0.20872    0.87062    1.000
    N525     N        0.51926    0.20600    0.84671    1.000
    N526     N        0.57690    0.22812    0.84769    1.000
    N527     N        0.28537    0.20163    0.97553    1.000
    N528     N        0.25750    0.19224    0.00162    1.000
    N529     N        0.29430    0.20930    0.02226    1.000
    N530     N        0.34490    0.22923    0.00892    1.000
    C358     C        0.33938    0.22448    0.98004    1.000
    N531     N        0.47490    0.36853    0.96847    1.000
    N532     N        0.54310    0.36507    0.95313    1.000
    N533     N        0.54710    0.33603    0.94246    1.000
    N534     N        0.60140    0.13740    0.77872    1.000
    N535     N        0.58500    0.14574    0.80676    1.000
    C359     C        0.77287    0.11390    0.91880    1.000
    N536     N        0.78170    0.12230    0.94679    1.000
    N537     N        0.85621    0.11321    0.95574    1.000
    N538     N        0.89343    0.09919    0.93326    1.000
    N539     N        0.84194    0.09961    0.91044    1.000
    C360     C        0.47920    0.32175    0.95259    1.000
    N540     N        0.43240    0.34127    0.96874    1.000
    Cu61     Cu       0.99882    0.67879    0.81245    1.000
    Cu62     Cu       0.06845    0.65796    0.73948    1.000
    C361     C        0.96670    0.74541    0.91348    1.000
    C362     C        0.91770    0.72863    0.93251    1.000
    H121     H        0.90380    0.70830    0.92780    1.000
    C363     C        0.88840    0.74157    0.95858    1.000
    C364     C        0.90910    0.77226    0.96518    1.000
    H122     H        0.89000    0.78130    0.98250    1.000
    C365     C        0.95790    0.78926    0.94614    1.000
    C366     C        0.98820    0.77553    0.92050    1.000
    H123     H        0.02300    0.78670    0.90810    1.000
    C367     C        0.19740    0.61899    0.87112    1.000
    H124     H        0.24600    0.61500    0.86090    1.000
    C368     C        0.19770    0.61891    0.90178    1.000
    N541     N        0.06530    0.74453    0.87222    1.000
    C369     C        0.00060    0.73255    0.88639    1.000
    N542     N        0.97210    0.70872    0.87062    1.000
    N543     N        0.01926    0.70600    0.84671    1.000
    N544     N        0.07690    0.72812    0.84769    1.000
    N545     N        0.78537    0.70163    0.97553    1.000
    N546     N        0.75750    0.69224    0.00162    1.000
    N547     N        0.79430    0.70930    0.02226    1.000
    N548     N        0.84490    0.72923    0.00892    1.000
    C370     C        0.83938    0.72448    0.98004    1.000
    N549     N        0.97490    0.86853    0.96847    1.000
    N550     N        0.04310    0.86507    0.95313    1.000
    N551     N        0.04710    0.83603    0.94246    1.000
    N552     N        0.10140    0.63740    0.77872    1.000
    N553     N        0.08500    0.64574    0.80676    1.000
    C371     C        0.27287    0.61390    0.91880    1.000
    N554     N        0.28170    0.62230    0.94679    1.000
    N555     N        0.35621    0.61321    0.95574    1.000
    N556     N        0.39343    0.59919    0.93326    1.000
    N557     N        0.34194    0.59961    0.91044    1.000
    C372     C        0.97920    0.82175    0.95259    1.000
    N558     N        0.93240    0.84127    0.96874    1.000
    Cu63     Cu       0.99882    0.17879    0.31245    1.000
    Cu64     Cu       0.06845    0.15796    0.23948    1.000
    C373     C        0.96670    0.24541    0.41348    1.000
    C374     C        0.91770    0.22863    0.43251    1.000
    H125     H        0.90380    0.20830    0.42780    1.000
    C375     C        0.88840    0.24157    0.45858    1.000
    C376     C        0.90910    0.27226    0.46518    1.000
    H126     H        0.89000    0.28130    0.48250    1.000
    C377     C        0.95790    0.28926    0.44614    1.000
    C378     C        0.98820    0.27553    0.42050    1.000
    H127     H        0.02300    0.28670    0.40810    1.000
    C379     C        0.19740    0.11899    0.37112    1.000
    H128     H        0.24600    0.11500    0.36090    1.000
    C380     C        0.19770    0.11891    0.40178    1.000
    N559     N        0.06530    0.24453    0.37222    1.000
    C381     C        0.00060    0.23255    0.38639    1.000
    N560     N        0.97210    0.20872    0.37062    1.000
    N561     N        0.01926    0.20600    0.34671    1.000
    N562     N        0.07690    0.22812    0.34769    1.000
    N563     N        0.78537    0.20163    0.47553    1.000
    N564     N        0.75750    0.19224    0.50162    1.000
    N565     N        0.79430    0.20930    0.52226    1.000
    N566     N        0.84490    0.22923    0.50892    1.000
    C382     C        0.83938    0.22448    0.48004    1.000
    N567     N        0.97490    0.36853    0.46847    1.000
    N568     N        0.04310    0.36507    0.45313    1.000
    N569     N        0.04710    0.33603    0.44246    1.000
    N570     N        0.10140    0.13740    0.27872    1.000
    N571     N        0.08500    0.14574    0.30676    1.000
    C383     C        0.27287    0.11390    0.41880    1.000
    N572     N        0.28170    0.12230    0.44679    1.000
    N573     N        0.35621    0.11321    0.45574    1.000
    N574     N        0.39343    0.09919    0.43326    1.000
    N575     N        0.34194    0.09961    0.41044    1.000
    C384     C        0.97920    0.32175    0.45259    1.000
    N576     N        0.93240    0.34127    0.46874    1.000
    Cu65     Cu       0.62500    0.42783    0.12500    1.000
    Cu66     Cu       0.62500    0.92783    0.62500    1.000
    Cu67     Cu       0.12500    0.32217    0.12500    1.000
    Cu68     Cu       0.12500    0.82217    0.62500    1.000
    Cu69     Cu       0.62500    0.32217    0.62500    1.000
    Cu70     Cu       0.12500    0.42783    0.62500    1.000
    Cu71     Cu       0.12500    0.92783    0.12500    1.000
    Cu72     Cu       0.62500    0.82217    0.12500    1.000
    Cu73     Cu       0.37500    0.57217    0.87500    1.000
    Cu74     Cu       0.37500    0.07217    0.37500    1.000
    Cu75     Cu       0.87500    0.67783    0.87500    1.000
    Cu76     Cu       0.87500    0.17783    0.37500    1.000
    Cu77     Cu       0.87500    0.57217    0.37500    1.000
    Cu78     Cu       0.87500    0.07217    0.87500    1.000
    Cu79     Cu       0.37500    0.67783    0.37500    1.000
    Cu80     Cu       0.37500    0.17783    0.87500    1.000
    C385     C        0.37500    0.37500    0.10576    1.000
    C386     C        0.37500    0.37500    0.16647    1.000
    H129     H        0.37500    0.37500    0.18690    1.000
    C387     C        0.37500    0.37500    0.07342    1.000
    C388     C        0.37500    0.87500    0.60576    1.000
    C389     C        0.37500    0.87500    0.66647    1.000
    H130     H        0.37500    0.87500    0.68690    1.000
    C390     C        0.37500    0.87500    0.57342    1.000
    C391     C        0.87500    0.37500    0.60576    1.000
    C392     C        0.87500    0.37500    0.66647    1.000
    H131     H        0.87500    0.37500    0.68690    1.000
    C393     C        0.87500    0.37500    0.57342    1.000
    C394     C        0.87500    0.87500    0.10576    1.000
    C395     C        0.87500    0.87500    0.16647    1.000
    H132     H        0.87500    0.87500    0.18690    1.000
    C396     C        0.87500    0.87500    0.07342    1.000
    C397     C        0.37500    0.37500    0.64424    1.000
    C398     C        0.37500    0.37500    0.58353    1.000
    H133     H        0.37500    0.37500    0.56310    1.000
    C399     C        0.37500    0.37500    0.67658    1.000
    C400     C        0.37500    0.87500    0.14424    1.000
    C401     C        0.37500    0.87500    0.08353    1.000
    H134     H        0.37500    0.87500    0.06310    1.000
    C402     C        0.37500    0.87500    0.17658    1.000
    C403     C        0.87500    0.37500    0.14424    1.000
    C404     C        0.87500    0.37500    0.08353    1.000
    H135     H        0.87500    0.37500    0.06310    1.000
    C405     C        0.87500    0.37500    0.17658    1.000
    C406     C        0.87500    0.87500    0.64424    1.000
    C407     C        0.87500    0.87500    0.58353    1.000
    H136     H        0.87500    0.87500    0.56310    1.000
    C408     C        0.87500    0.87500    0.67658    1.000
    C409     C        0.62500    0.62500    0.89424    1.000
    C410     C        0.62500    0.62500    0.83353    1.000
    H137     H        0.62500    0.62500    0.81310    1.000
    C411     C        0.62500    0.62500    0.92658    1.000
    C412     C        0.62500    0.12500    0.39424    1.000
    C413     C        0.62500    0.12500    0.33353    1.000
    H138     H        0.62500    0.12500    0.31310    1.000
    C414     C        0.62500    0.12500    0.42658    1.000
    C415     C        0.12500    0.62500    0.39424    1.000
    C416     C        0.12500    0.62500    0.33353    1.000
    H139     H        0.12500    0.62500    0.31310    1.000
    C417     C        0.12500    0.62500    0.42658    1.000
    C418     C        0.12500    0.12500    0.89424    1.000
    C419     C        0.12500    0.12500    0.83353    1.000
    H140     H        0.12500    0.12500    0.81310    1.000
    C420     C        0.12500    0.12500    0.92658    1.000
    C421     C        0.62500    0.62500    0.35576    1.000
    C422     C        0.62500    0.62500    0.41647    1.000
    H141     H        0.62500    0.62500    0.43690    1.000
    C423     C        0.62500    0.62500    0.32342    1.000
    C424     C        0.62500    0.12500    0.85576    1.000
    C425     C        0.62500    0.12500    0.91647    1.000
    H142     H        0.62500    0.12500    0.93690    1.000
    C426     C        0.62500    0.12500    0.82342    1.000
    C427     C        0.12500    0.62500    0.85576    1.000
    C428     C        0.12500    0.62500    0.91647    1.000
    H143     H        0.12500    0.62500    0.93690    1.000
    C429     C        0.12500    0.62500    0.82342    1.000
    C430     C        0.12500    0.12500    0.35576    1.000
    C431     C        0.12500    0.12500    0.41647    1.000
    H144     H        0.12500    0.12500    0.43690    1.000
    C432     C        0.12500    0.12500    0.32342    1.000
