# CIF file generated by openbabel 3.1.0, see https://openbabel.org
data_I
_chemical_name_common 'image0'
_cell_length_a 17.256
_cell_length_b 23.227
_cell_length_c 25.426
_cell_angle_alpha 90
_cell_angle_beta 90
_cell_angle_gamma 90
_space_group_name_H-M_alt 'P 1'
_space_group_name_Hall 'P 1'
loop_
    _symmetry_equiv_pos_as_xyz
    x,y,z
loop_
    _atom_site_label
    _atom_site_type_symbol
    _atom_site_fract_x
    _atom_site_fract_y
    _atom_site_fract_z
    _atom_site_occupancy
    Zn1      Zn       0.16391    0.34253    0.93779    1.000
    O1       O        0.27420    0.46544    0.06099    1.000
    O2       O        0.18500    0.41441    0.10325    1.000
    C1       C        0.23070    0.45750    0.09910    1.000
    C2       C        0.23020    0.50010    0.14150    1.000
    C3       C        0.23230    0.58020    0.22550    1.000
    C4       C        0.28710    0.53940    0.14670    1.000
    H1       H        0.32910    0.53860    0.12380    1.000
    C5       C        0.28360    0.58170    0.18650    1.000
    H2       H        0.31880    0.61200    0.18540    1.000
    C6       C        0.17260    0.54040    0.22340    1.000
    H3       H        0.13230    0.54250    0.24760    1.000
    C7       C        0.17250    0.49570    0.18380    1.000
    H4       H        0.13730    0.46540    0.18510    1.000
    C8       C        0.23610    0.62050    0.26850    1.000
    C9       C        0.28810    0.66560    0.26540    1.000
    H5       H        0.31970    0.66890    0.23600    1.000
    C10      C        0.29460    0.70890    0.30780    1.000
    H6       H        0.33010    0.73900    0.30630    1.000
    C11      C        0.24180    0.70170    0.35230    1.000
    C12      C        0.19390    0.65420    0.35420    1.000
    H7       H        0.16360    0.64730    0.38370    1.000
    C13      C        0.19120    0.61600    0.31100    1.000
    H8       H        0.15590    0.58590    0.31230    1.000
    C14      C        0.24650    0.74360    0.39580    1.000
    O3       O        0.20560    0.73140    0.43780    1.000
    O4       O        0.29190    0.78640    0.38970    1.000
    O5       O        0.05670    0.35380    0.04210    1.000
    C15      C        0.81760    0.38790    0.03180    1.000
    H9       H        0.79420    0.41260    0.05570    1.000
    C16      C        0.89580    0.38400    0.03010    1.000
    H10      H        0.92270    0.40670    0.05410    1.000
    C17      C        0.89560    0.32460    0.95530    1.000
    H11      H        0.92200    0.30660    0.92800    1.000
    C18      C        0.81330    0.32690    0.95790    1.000
    H12      H        0.78400    0.30880    0.93200    1.000
    C19      C        0.25900    0.55600    0.13330    1.000
    H13      H        0.28120    0.56420    0.10090    1.000
    C20      C        0.25660    0.59960    0.17050    1.000
    H14      H        0.26880    0.63770    0.16260    1.000
    C21      C        0.21410    0.52520    0.22990    1.000
    H15      H        0.20110    0.51230    0.26340    1.000
    C22      C        0.21250    0.48490    0.19010    1.000
    H16      H        0.19900    0.44700    0.19740    1.000
    Zn2      Zn       0.33609    0.84253    0.56221    1.000
    O6       O        0.22580    0.96544    0.43901    1.000
    O7       O        0.31500    0.91441    0.39675    1.000
    C23      C        0.26930    0.95750    0.40090    1.000
    C24      C        0.26980    0.00010    0.35850    1.000
    C25      C        0.26770    0.08020    0.27450    1.000
    C26      C        0.21290    0.03940    0.35330    1.000
    H17      H        0.17090    0.03860    0.37620    1.000
    C27      C        0.21640    0.08170    0.31350    1.000
    H18      H        0.18120    0.11200    0.31460    1.000
    C28      C        0.32740    0.04040    0.27660    1.000
    H19      H        0.36770    0.04250    0.25240    1.000
    C29      C        0.32750    0.99570    0.31620    1.000
    H20      H        0.36270    0.96540    0.31490    1.000
    C30      C        0.26390    0.12050    0.23150    1.000
    C31      C        0.21190    0.16560    0.23460    1.000
    H21      H        0.18030    0.16890    0.26400    1.000
    C32      C        0.20540    0.20890    0.19220    1.000
    H22      H        0.16990    0.23900    0.19370    1.000
    C33      C        0.25820    0.20170    0.14770    1.000
    C34      C        0.30610    0.15420    0.14580    1.000
    H23      H        0.33640    0.14730    0.11630    1.000
    C35      C        0.30880    0.11600    0.18900    1.000
    H24      H        0.34410    0.08590    0.18770    1.000
    C36      C        0.25350    0.24360    0.10420    1.000
    O8       O        0.29440    0.23140    0.06220    1.000
    O9       O        0.20810    0.28640    0.11030    1.000
    O10      O        0.44330    0.85380    0.45790    1.000
    C37      C        0.68240    0.88790    0.46820    1.000
    H25      H        0.70580    0.91260    0.44430    1.000
    C38      C        0.60420    0.88400    0.46990    1.000
    H26      H        0.57730    0.90670    0.44590    1.000
    C39      C        0.60440    0.82460    0.54470    1.000
    H27      H        0.57800    0.80660    0.57200    1.000
    C40      C        0.68670    0.82690    0.54210    1.000
    H28      H        0.71600    0.80880    0.56800    1.000
    C41      C        0.24100    0.05600    0.36670    1.000
    H29      H        0.21880    0.06420    0.39910    1.000
    C42      C        0.24340    0.09960    0.32950    1.000
    H30      H        0.23120    0.13770    0.33740    1.000
    C43      C        0.28590    0.02520    0.27010    1.000
    H31      H        0.29890    0.01230    0.23660    1.000
    C44      C        0.28750    0.98490    0.30990    1.000
    H32      H        0.30100    0.94700    0.30260    1.000
    Zn3      Zn       0.16391    0.34253    0.06221    1.000
    O11      O        0.27420    0.46544    0.93901    1.000
    O12      O        0.18500    0.41441    0.89675    1.000
    C45      C        0.23070    0.45750    0.90090    1.000
    C46      C        0.23020    0.50010    0.85850    1.000
    C47      C        0.23230    0.58020    0.77450    1.000
    C48      C        0.28710    0.53940    0.85330    1.000
    H33      H        0.32910    0.53860    0.87620    1.000
    C49      C        0.28360    0.58170    0.81350    1.000
    H34      H        0.31880    0.61200    0.81460    1.000
    C50      C        0.17260    0.54040    0.77660    1.000
    H35      H        0.13230    0.54250    0.75240    1.000
    C51      C        0.17250    0.49570    0.81620    1.000
    H36      H        0.13730    0.46540    0.81490    1.000
    C52      C        0.23610    0.62050    0.73150    1.000
    C53      C        0.28810    0.66560    0.73460    1.000
    H37      H        0.31970    0.66890    0.76400    1.000
    C54      C        0.29460    0.70890    0.69220    1.000
    H38      H        0.33010    0.73900    0.69370    1.000
    C55      C        0.24180    0.70170    0.64770    1.000
    C56      C        0.19390    0.65420    0.64580    1.000
    H39      H        0.16360    0.64730    0.61630    1.000
    C57      C        0.19120    0.61600    0.68900    1.000
    H40      H        0.15590    0.58590    0.68770    1.000
    C58      C        0.24650    0.74360    0.60420    1.000
    O13      O        0.20560    0.73140    0.56220    1.000
    O14      O        0.29190    0.78640    0.61030    1.000
    O15      O        0.05670    0.35380    0.95790    1.000
    C59      C        0.81760    0.38790    0.96820    1.000
    H41      H        0.79420    0.41260    0.94430    1.000
    C60      C        0.89580    0.38400    0.96990    1.000
    H42      H        0.92270    0.40670    0.94590    1.000
    C61      C        0.89560    0.32460    0.04470    1.000
    H43      H        0.92200    0.30660    0.07200    1.000
    C62      C        0.81330    0.32690    0.04210    1.000
    H44      H        0.78400    0.30880    0.06800    1.000
    C63      C        0.25900    0.55600    0.86670    1.000
    H45      H        0.28120    0.56420    0.89910    1.000
    C64      C        0.25660    0.59960    0.82950    1.000
    H46      H        0.26880    0.63770    0.83740    1.000
    C65      C        0.21410    0.52520    0.77010    1.000
    H47      H        0.20110    0.51230    0.73660    1.000
    C66      C        0.21250    0.48490    0.80990    1.000
    H48      H        0.19900    0.44700    0.80260    1.000
    Zn4      Zn       0.33609    0.84253    0.43779    1.000
    O16      O        0.22580    0.96544    0.56099    1.000
    O17      O        0.31500    0.91441    0.60325    1.000
    C67      C        0.26930    0.95750    0.59910    1.000
    C68      C        0.26980    0.00010    0.64150    1.000
    C69      C        0.26770    0.08020    0.72550    1.000
    C70      C        0.21290    0.03940    0.64670    1.000
    H49      H        0.17090    0.03860    0.62380    1.000
    C71      C        0.21640    0.08170    0.68650    1.000
    H50      H        0.18120    0.11200    0.68540    1.000
    C72      C        0.32740    0.04040    0.72340    1.000
    H51      H        0.36770    0.04250    0.74760    1.000
    C73      C        0.32750    0.99570    0.68380    1.000
    H52      H        0.36270    0.96540    0.68510    1.000
    C74      C        0.26390    0.12050    0.76850    1.000
    C75      C        0.21190    0.16560    0.76540    1.000
    H53      H        0.18030    0.16890    0.73600    1.000
    C76      C        0.20540    0.20890    0.80780    1.000
    H54      H        0.16990    0.23900    0.80630    1.000
    C77      C        0.25820    0.20170    0.85230    1.000
    C78      C        0.30610    0.15420    0.85420    1.000
    H55      H        0.33640    0.14730    0.88370    1.000
    C79      C        0.30880    0.11600    0.81100    1.000
    H56      H        0.34410    0.08590    0.81230    1.000
    C80      C        0.25350    0.24360    0.89580    1.000
    O18      O        0.29440    0.23140    0.93780    1.000
    O19      O        0.20810    0.28640    0.88970    1.000
    O20      O        0.44330    0.85380    0.54210    1.000
    C81      C        0.68240    0.88790    0.53180    1.000
    H57      H        0.70580    0.91260    0.55570    1.000
    C82      C        0.60420    0.88400    0.53010    1.000
    H58      H        0.57730    0.90670    0.55410    1.000
    C83      C        0.60440    0.82460    0.45530    1.000
    H59      H        0.57800    0.80660    0.42800    1.000
    C84      C        0.68670    0.82690    0.45790    1.000
    H60      H        0.71600    0.80880    0.43200    1.000
    C85      C        0.24100    0.05600    0.63330    1.000
    H61      H        0.21880    0.06420    0.60090    1.000
    C86      C        0.24340    0.09960    0.67050    1.000
    H62      H        0.23120    0.13770    0.66260    1.000
    C87      C        0.28590    0.02520    0.72990    1.000
    H63      H        0.29890    0.01230    0.76340    1.000
    C88      C        0.28750    0.98490    0.69010    1.000
    H64      H        0.30100    0.94700    0.69740    1.000
    Zn5      Zn       0.29128    0.41652    0.00000    1.000
    Zn6      Zn       0.29801    0.27917    0.00000    1.000
    O21      O        0.23000    0.34704    0.00000    1.000
    O22      O        0.40350    0.40560    0.00000    1.000
    O23      O        0.40490    0.30730    0.00000    1.000
    C89      C        0.43840    0.35550    0.00000    1.000
    C90      C        0.52250    0.35840    0.00000    1.000
    C91      C        0.56640    0.30670    0.00000    1.000
    H65      H        0.54070    0.27150    0.00000    1.000
    C92      C        0.64430    0.30740    0.00000    1.000
    H66      H        0.67080    0.27260    0.00000    1.000
    C93      C        0.68720    0.35900    0.00000    1.000
    C94      C        0.64740    0.40620    0.00000    1.000
    H67      H        0.67410    0.44100    0.00000    1.000
    C95      C        0.56610    0.40800    0.00000    1.000
    H68      H        0.54110    0.44340    0.00000    1.000
    C96      C        0.77460    0.35700    0.00000    1.000
    C97      C        0.93630    0.35350    0.00000    1.000
    C98      C        0.02390    0.35590    0.00000    1.000
    Zn7      Zn       0.20872    0.91652    0.50000    1.000
    Zn8      Zn       0.20199    0.77917    0.50000    1.000
    O24      O        0.27000    0.84704    0.50000    1.000
    O25      O        0.09650    0.90560    0.50000    1.000
    O26      O        0.09510    0.80730    0.50000    1.000
    C99      C        0.06160    0.85550    0.50000    1.000
    C100     C        0.97750    0.85840    0.50000    1.000
    C101     C        0.93360    0.80670    0.50000    1.000
    H69      H        0.95930    0.77150    0.50000    1.000
    C102     C        0.85570    0.80740    0.50000    1.000
    H70      H        0.82920    0.77260    0.50000    1.000
    C103     C        0.81280    0.85900    0.50000    1.000
    C104     C        0.85260    0.90620    0.50000    1.000
    H71      H        0.82590    0.94100    0.50000    1.000
    C105     C        0.93390    0.90800    0.50000    1.000
    H72      H        0.95890    0.94340    0.50000    1.000
    C106     C        0.72540    0.85700    0.50000    1.000
    C107     C        0.56370    0.85350    0.50000    1.000
    C108     C        0.47610    0.85590    0.50000    1.000
    Zn9      Zn       0.83609    0.65747    0.93779    1.000
    O27      O        0.72580    0.53456    0.06099    1.000
    O28      O        0.81500    0.58559    0.10325    1.000
    C109     C        0.76930    0.54250    0.09910    1.000
    C110     C        0.76980    0.49990    0.14150    1.000
    C111     C        0.76770    0.41980    0.22550    1.000
    C112     C        0.71290    0.46060    0.14670    1.000
    H73      H        0.67090    0.46140    0.12380    1.000
    C113     C        0.71640    0.41830    0.18650    1.000
    H74      H        0.68120    0.38800    0.18540    1.000
    C114     C        0.82740    0.45960    0.22340    1.000
    H75      H        0.86770    0.45750    0.24760    1.000
    C115     C        0.82750    0.50430    0.18380    1.000
    H76      H        0.86270    0.53460    0.18510    1.000
    C116     C        0.76390    0.37950    0.26850    1.000
    C117     C        0.71190    0.33440    0.26540    1.000
    H77      H        0.68030    0.33110    0.23600    1.000
    C118     C        0.70540    0.29110    0.30780    1.000
    H78      H        0.66990    0.26100    0.30630    1.000
    C119     C        0.75820    0.29830    0.35230    1.000
    C120     C        0.80610    0.34580    0.35420    1.000
    H79      H        0.83640    0.35270    0.38370    1.000
    C121     C        0.80880    0.38400    0.31100    1.000
    H80      H        0.84410    0.41410    0.31230    1.000
    C122     C        0.75350    0.25640    0.39580    1.000
    O29      O        0.79440    0.26860    0.43780    1.000
    O30      O        0.70810    0.21360    0.38970    1.000
    O31      O        0.94330    0.64620    0.04210    1.000
    C123     C        0.18240    0.61210    0.03180    1.000
    H81      H        0.20580    0.58740    0.05570    1.000
    C124     C        0.10420    0.61600    0.03010    1.000
    H82      H        0.07730    0.59330    0.05410    1.000
    C125     C        0.10440    0.67540    0.95530    1.000
    H83      H        0.07800    0.69340    0.92800    1.000
    C126     C        0.18670    0.67310    0.95790    1.000
    H84      H        0.21600    0.69120    0.93200    1.000
    C127     C        0.74100    0.44400    0.13330    1.000
    H85      H        0.71880    0.43580    0.10090    1.000
    C128     C        0.74340    0.40040    0.17050    1.000
    H86      H        0.73120    0.36230    0.16260    1.000
    C129     C        0.78590    0.47480    0.22990    1.000
    H87      H        0.79890    0.48770    0.26340    1.000
    C130     C        0.78750    0.51510    0.19010    1.000
    H88      H        0.80100    0.55300    0.19740    1.000
    Zn10     Zn       0.66391    0.15747    0.56221    1.000
    O32      O        0.77420    0.03456    0.43901    1.000
    O33      O        0.68500    0.08559    0.39675    1.000
    C131     C        0.73070    0.04250    0.40090    1.000
    C132     C        0.73020    0.99990    0.35850    1.000
    C133     C        0.73230    0.91980    0.27450    1.000
    C134     C        0.78710    0.96060    0.35330    1.000
    H89      H        0.82910    0.96140    0.37620    1.000
    C135     C        0.78360    0.91830    0.31350    1.000
    H90      H        0.81880    0.88800    0.31460    1.000
    C136     C        0.67260    0.95960    0.27660    1.000
    H91      H        0.63230    0.95750    0.25240    1.000
    C137     C        0.67250    0.00430    0.31620    1.000
    H92      H        0.63730    0.03460    0.31490    1.000
    C138     C        0.73610    0.87950    0.23150    1.000
    C139     C        0.78810    0.83440    0.23460    1.000
    H93      H        0.81970    0.83110    0.26400    1.000
    C140     C        0.79460    0.79110    0.19220    1.000
    H94      H        0.83010    0.76100    0.19370    1.000
    C141     C        0.74180    0.79830    0.14770    1.000
    C142     C        0.69390    0.84580    0.14580    1.000
    H95      H        0.66360    0.85270    0.11630    1.000
    C143     C        0.69120    0.88400    0.18900    1.000
    H96      H        0.65590    0.91410    0.18770    1.000
    C144     C        0.74650    0.75640    0.10420    1.000
    O34      O        0.70560    0.76860    0.06220    1.000
    O35      O        0.79190    0.71360    0.11030    1.000
    O36      O        0.55670    0.14620    0.45790    1.000
    C145     C        0.31760    0.11210    0.46820    1.000
    H97      H        0.29420    0.08740    0.44430    1.000
    C146     C        0.39580    0.11600    0.46990    1.000
    H98      H        0.42270    0.09330    0.44590    1.000
    C147     C        0.39560    0.17540    0.54470    1.000
    H99      H        0.42200    0.19340    0.57200    1.000
    C148     C        0.31330    0.17310    0.54210    1.000
    H100     H        0.28400    0.19120    0.56800    1.000
    C149     C        0.75900    0.94400    0.36670    1.000
    H101     H        0.78120    0.93580    0.39910    1.000
    C150     C        0.75660    0.90040    0.32950    1.000
    H102     H        0.76880    0.86230    0.33740    1.000
    C151     C        0.71410    0.97480    0.27010    1.000
    H103     H        0.70110    0.98770    0.23660    1.000
    C152     C        0.71250    0.01510    0.30990    1.000
    H104     H        0.69900    0.05300    0.30260    1.000
    Zn11     Zn       0.83609    0.65747    0.06221    1.000
    O37      O        0.72580    0.53456    0.93901    1.000
    O38      O        0.81500    0.58559    0.89675    1.000
    C153     C        0.76930    0.54250    0.90090    1.000
    C154     C        0.76980    0.49990    0.85850    1.000
    C155     C        0.76770    0.41980    0.77450    1.000
    C156     C        0.71290    0.46060    0.85330    1.000
    H105     H        0.67090    0.46140    0.87620    1.000
    C157     C        0.71640    0.41830    0.81350    1.000
    H106     H        0.68120    0.38800    0.81460    1.000
    C158     C        0.82740    0.45960    0.77660    1.000
    H107     H        0.86770    0.45750    0.75240    1.000
    C159     C        0.82750    0.50430    0.81620    1.000
    H108     H        0.86270    0.53460    0.81490    1.000
    C160     C        0.76390    0.37950    0.73150    1.000
    C161     C        0.71190    0.33440    0.73460    1.000
    H109     H        0.68030    0.33110    0.76400    1.000
    C162     C        0.70540    0.29110    0.69220    1.000
    H110     H        0.66990    0.26100    0.69370    1.000
    C163     C        0.75820    0.29830    0.64770    1.000
    C164     C        0.80610    0.34580    0.64580    1.000
    H111     H        0.83640    0.35270    0.61630    1.000
    C165     C        0.80880    0.38400    0.68900    1.000
    H112     H        0.84410    0.41410    0.68770    1.000
    C166     C        0.75350    0.25640    0.60420    1.000
    O39      O        0.79440    0.26860    0.56220    1.000
    O40      O        0.70810    0.21360    0.61030    1.000
    O41      O        0.94330    0.64620    0.95790    1.000
    C167     C        0.18240    0.61210    0.96820    1.000
    H113     H        0.20580    0.58740    0.94430    1.000
    C168     C        0.10420    0.61600    0.96990    1.000
    H114     H        0.07730    0.59330    0.94590    1.000
    C169     C        0.10440    0.67540    0.04470    1.000
    H115     H        0.07800    0.69340    0.07200    1.000
    C170     C        0.18670    0.67310    0.04210    1.000
    H116     H        0.21600    0.69120    0.06800    1.000
    C171     C        0.74100    0.44400    0.86670    1.000
    H117     H        0.71880    0.43580    0.89910    1.000
    C172     C        0.74340    0.40040    0.82950    1.000
    H118     H        0.73120    0.36230    0.83740    1.000
    C173     C        0.78590    0.47480    0.77010    1.000
    H119     H        0.79890    0.48770    0.73660    1.000
    C174     C        0.78750    0.51510    0.80990    1.000
    H120     H        0.80100    0.55300    0.80260    1.000
    Zn12     Zn       0.66391    0.15747    0.43779    1.000
    O42      O        0.77420    0.03456    0.56099    1.000
    O43      O        0.68500    0.08559    0.60325    1.000
    C175     C        0.73070    0.04250    0.59910    1.000
    C176     C        0.73020    0.99990    0.64150    1.000
    C177     C        0.73230    0.91980    0.72550    1.000
    C178     C        0.78710    0.96060    0.64670    1.000
    H121     H        0.82910    0.96140    0.62380    1.000
    C179     C        0.78360    0.91830    0.68650    1.000
    H122     H        0.81880    0.88800    0.68540    1.000
    C180     C        0.67260    0.95960    0.72340    1.000
    H123     H        0.63230    0.95750    0.74760    1.000
    C181     C        0.67250    0.00430    0.68380    1.000
    H124     H        0.63730    0.03460    0.68510    1.000
    C182     C        0.73610    0.87950    0.76850    1.000
    C183     C        0.78810    0.83440    0.76540    1.000
    H125     H        0.81970    0.83110    0.73600    1.000
    C184     C        0.79460    0.79110    0.80780    1.000
    H126     H        0.83010    0.76100    0.80630    1.000
    C185     C        0.74180    0.79830    0.85230    1.000
    C186     C        0.69390    0.84580    0.85420    1.000
    H127     H        0.66360    0.85270    0.88370    1.000
    C187     C        0.69120    0.88400    0.81100    1.000
    H128     H        0.65590    0.91410    0.81230    1.000
    C188     C        0.74650    0.75640    0.89580    1.000
    O44      O        0.70560    0.76860    0.93780    1.000
    O45      O        0.79190    0.71360    0.88970    1.000
    O46      O        0.55670    0.14620    0.54210    1.000
    C189     C        0.31760    0.11210    0.53180    1.000
    H129     H        0.29420    0.08740    0.55570    1.000
    C190     C        0.39580    0.11600    0.53010    1.000
    H130     H        0.42270    0.09330    0.55410    1.000
    C191     C        0.39560    0.17540    0.45530    1.000
    H131     H        0.42200    0.19340    0.42800    1.000
    C192     C        0.31330    0.17310    0.45790    1.000
    H132     H        0.28400    0.19120    0.43200    1.000
    C193     C        0.75900    0.94400    0.63330    1.000
    H133     H        0.78120    0.93580    0.60090    1.000
    C194     C        0.75660    0.90040    0.67050    1.000
    H134     H        0.76880    0.86230    0.66260    1.000
    C195     C        0.71410    0.97480    0.72990    1.000
    H135     H        0.70110    0.98770    0.76340    1.000
    C196     C        0.71250    0.01510    0.69010    1.000
    H136     H        0.69900    0.05300    0.69740    1.000
    Zn13     Zn       0.70872    0.58348    0.00000    1.000
    Zn14     Zn       0.70199    0.72083    0.00000    1.000
    O47      O        0.77000    0.65296    0.00000    1.000
    O48      O        0.59650    0.59440    0.00000    1.000
    O49      O        0.59510    0.69270    0.00000    1.000
    C197     C        0.56160    0.64450    0.00000    1.000
    C198     C        0.47750    0.64160    0.00000    1.000
    C199     C        0.43360    0.69330    0.00000    1.000
    H137     H        0.45930    0.72850    0.00000    1.000
    C200     C        0.35570    0.69260    0.00000    1.000
    H138     H        0.32920    0.72740    0.00000    1.000
    C201     C        0.31280    0.64100    0.00000    1.000
    C202     C        0.35260    0.59380    0.00000    1.000
    H139     H        0.32590    0.55900    0.00000    1.000
    C203     C        0.43390    0.59200    0.00000    1.000
    H140     H        0.45890    0.55660    0.00000    1.000
    C204     C        0.22540    0.64300    0.00000    1.000
    C205     C        0.06370    0.64650    0.00000    1.000
    C206     C        0.97610    0.64410    0.00000    1.000
    Zn15     Zn       0.79128    0.08348    0.50000    1.000
    Zn16     Zn       0.79801    0.22083    0.50000    1.000
    O50      O        0.73000    0.15296    0.50000    1.000
    O51      O        0.90350    0.09440    0.50000    1.000
    O52      O        0.90490    0.19270    0.50000    1.000
    C207     C        0.93840    0.14450    0.50000    1.000
    C208     C        0.02250    0.14160    0.50000    1.000
    C209     C        0.06640    0.19330    0.50000    1.000
    H141     H        0.04070    0.22850    0.50000    1.000
    C210     C        0.14430    0.19260    0.50000    1.000
    H142     H        0.17080    0.22740    0.50000    1.000
    C211     C        0.18720    0.14100    0.50000    1.000
    C212     C        0.14740    0.09380    0.50000    1.000
    H143     H        0.17410    0.05900    0.50000    1.000
    C213     C        0.06610    0.09200    0.50000    1.000
    H144     H        0.04110    0.05660    0.50000    1.000
    C214     C        0.27460    0.14300    0.50000    1.000
    C215     C        0.43630    0.14650    0.50000    1.000
    C216     C        0.52390    0.14410    0.50000    1.000
