# CIF file generated by openbabel 3.1.0, see https://openbabel.org
data_I
_chemical_name_common 'image0'
_cell_length_a 26.3262
_cell_length_b 26.3262
_cell_length_c 7.044
_cell_angle_alpha 90
_cell_angle_beta 90
_cell_angle_gamma 120
_space_group_name_H-M_alt 'P 1'
_space_group_name_Hall 'P 1'
loop_
    _symmetry_equiv_pos_as_xyz
    x,y,z
loop_
    _atom_site_label
    _atom_site_type_symbol
    _atom_site_fract_x
    _atom_site_fract_y
    _atom_site_fract_z
    _atom_site_occupancy
    Mn1      Mn       0.38560    0.36090    0.14200    1.000
    O1       O        0.32920    0.29450    0.36150    1.000
    O2       O        0.30070    0.22780    0.58890    1.000
    O3       O        0.35720    0.27680    0.01070    1.000
    C1       C        0.32020    0.24570    0.41930    1.000
    C2       C        0.32880    0.20530    0.28760    1.000
    C3       C        0.34530    0.22350    0.08980    1.000
    C4       C        0.35240    0.18320    0.97900    1.000
    H1       H        0.36090    0.19190    0.83880    1.000
    Mn2      Mn       0.05227    0.69423    0.47533    1.000
    O4       O        0.99587    0.62783    0.69483    1.000
    O5       O        0.96737    0.56113    0.92223    1.000
    O6       O        0.02387    0.61013    0.34403    1.000
    C5       C        0.98687    0.57903    0.75263    1.000
    C6       C        0.99547    0.53863    0.62093    1.000
    C7       C        0.01197    0.55683    0.42313    1.000
    C8       C        0.01907    0.51653    0.31233    1.000
    H2       H        0.02757    0.52523    0.17213    1.000
    Mn3      Mn       0.71893    0.02757    0.80867    1.000
    O7       O        0.66253    0.96117    0.02817    1.000
    O8       O        0.63403    0.89447    0.25557    1.000
    O9       O        0.69053    0.94347    0.67737    1.000
    C9       C        0.65353    0.91237    0.08597    1.000
    C10      C        0.66213    0.87197    0.95427    1.000
    C11      C        0.67863    0.89017    0.75647    1.000
    C12      C        0.68573    0.84987    0.64567    1.000
    H3       H        0.69423    0.85857    0.50547    1.000
    Mn4      Mn       0.63910    0.02470    0.14200    1.000
    O10      O        0.70550    0.03470    0.36150    1.000
    O11      O        0.77220    0.07290    0.58890    1.000
    O12      O        0.72320    0.08040    0.01070    1.000
    C13      C        0.75430    0.07450    0.41930    1.000
    C14      C        0.79470    0.12350    0.28760    1.000
    C15      C        0.77650    0.12180    0.08980    1.000
    C16      C        0.81680    0.16920    0.97900    1.000
    H4       H        0.80810    0.16900    0.83880    1.000
    Mn5      Mn       0.30577    0.35803    0.47533    1.000
    O13      O        0.37217    0.36803    0.69483    1.000
    O14      O        0.43887    0.40623    0.92223    1.000
    O15      O        0.38987    0.41373    0.34403    1.000
    C17      C        0.42097    0.40783    0.75263    1.000
    C18      C        0.46137    0.45683    0.62093    1.000
    C19      C        0.44317    0.45513    0.42313    1.000
    C20      C        0.48347    0.50253    0.31233    1.000
    H5       H        0.47477    0.50233    0.17213    1.000
    Mn6      Mn       0.97243    0.69137    0.80867    1.000
    O16      O        0.03883    0.70137    0.02817    1.000
    O17      O        0.10553    0.73957    0.25557    1.000
    O18      O        0.05653    0.74707    0.67737    1.000
    C21      C        0.08763    0.74117    0.08597    1.000
    C22      C        0.12803    0.79017    0.95427    1.000
    C23      C        0.10983    0.78847    0.75647    1.000
    C24      C        0.15013    0.83587    0.64567    1.000
    H6       H        0.14143    0.83567    0.50547    1.000
    Mn7      Mn       0.97530    0.61440    0.14200    1.000
    O19      O        0.96530    0.67080    0.36150    1.000
    O20      O        0.92710    0.69930    0.58890    1.000
    O21      O        0.91960    0.64280    0.01070    1.000
    C25      C        0.92550    0.67980    0.41930    1.000
    C26      C        0.87650    0.67120    0.28760    1.000
    C27      C        0.87820    0.65470    0.08980    1.000
    C28      C        0.83080    0.64760    0.97900    1.000
    H7       H        0.83100    0.63910    0.83880    1.000
    Mn8      Mn       0.64197    0.94773    0.47533    1.000
    O22      O        0.63197    0.00413    0.69483    1.000
    O23      O        0.59377    0.03263    0.92223    1.000
    O24      O        0.58627    0.97613    0.34403    1.000
    C29      C        0.59217    0.01313    0.75263    1.000
    C30      C        0.54317    0.00453    0.62093    1.000
    C31      C        0.54487    0.98803    0.42313    1.000
    C32      C        0.49747    0.98093    0.31233    1.000
    H8       H        0.49767    0.97243    0.17213    1.000
    Mn9      Mn       0.30863    0.28107    0.80867    1.000
    O25      O        0.29863    0.33747    0.02817    1.000
    O26      O        0.26043    0.36597    0.25557    1.000
    O27      O        0.25293    0.30947    0.67737    1.000
    C33      C        0.25883    0.34647    0.08597    1.000
    C34      C        0.20983    0.33787    0.95427    1.000
    C35      C        0.21153    0.32137    0.75647    1.000
    C36      C        0.16413    0.31427    0.64567    1.000
    H9       H        0.16433    0.30577    0.50547    1.000
    Mn10     Mn       0.61440    0.63910    0.85800    1.000
    O28      O        0.67080    0.70550    0.63850    1.000
    O29      O        0.69930    0.77220    0.41110    1.000
    O30      O        0.64280    0.72320    0.98930    1.000
    C37      C        0.67980    0.75430    0.58070    1.000
    C38      C        0.67120    0.79470    0.71240    1.000
    C39      C        0.65470    0.77650    0.91020    1.000
    C40      C        0.64760    0.81680    0.02100    1.000
    H10      H        0.63910    0.80810    0.16120    1.000
    Mn11     Mn       0.28107    0.97243    0.19133    1.000
    O31      O        0.33747    0.03883    0.97183    1.000
    O32      O        0.36597    0.10553    0.74443    1.000
    O33      O        0.30947    0.05653    0.32263    1.000
    C41      C        0.34647    0.08763    0.91403    1.000
    C42      C        0.33787    0.12803    0.04573    1.000
    C43      C        0.32137    0.10983    0.24353    1.000
    C44      C        0.31427    0.15013    0.35433    1.000
    H11      H        0.30577    0.14143    0.49453    1.000
    Mn12     Mn       0.94773    0.30577    0.52467    1.000
    O34      O        0.00413    0.37217    0.30517    1.000
    O35      O        0.03263    0.43887    0.07777    1.000
    O36      O        0.97613    0.38987    0.65597    1.000
    C45      C        0.01313    0.42097    0.24737    1.000
    C46      C        0.00453    0.46137    0.37907    1.000
    C47      C        0.98803    0.44317    0.57687    1.000
    C48      C        0.98093    0.48347    0.68767    1.000
    H12      H        0.97243    0.47477    0.82787    1.000
    Mn13     Mn       0.36090    0.97530    0.85800    1.000
    O37      O        0.29450    0.96530    0.63850    1.000
    O38      O        0.22780    0.92710    0.41110    1.000
    O39      O        0.27680    0.91960    0.98930    1.000
    C49      C        0.24570    0.92550    0.58070    1.000
    C50      C        0.20530    0.87650    0.71240    1.000
    C51      C        0.22350    0.87820    0.91020    1.000
    C52      C        0.18320    0.83080    0.02100    1.000
    H13      H        0.19190    0.83100    0.16120    1.000
    Mn14     Mn       0.02757    0.30863    0.19133    1.000
    O40      O        0.96117    0.29863    0.97183    1.000
    O41      O        0.89447    0.26043    0.74443    1.000
    O42      O        0.94347    0.25293    0.32263    1.000
    C53      C        0.91237    0.25883    0.91403    1.000
    C54      C        0.87197    0.20983    0.04573    1.000
    C55      C        0.89017    0.21153    0.24353    1.000
    C56      C        0.84987    0.16413    0.35433    1.000
    H14      H        0.85857    0.16433    0.49453    1.000
    Mn15     Mn       0.69423    0.64197    0.52467    1.000
    O43      O        0.62783    0.63197    0.30517    1.000
    O44      O        0.56113    0.59377    0.07777    1.000
    O45      O        0.61013    0.58627    0.65597    1.000
    C57      C        0.57903    0.59217    0.24737    1.000
    C58      C        0.53863    0.54317    0.37907    1.000
    C59      C        0.55683    0.54487    0.57687    1.000
    C60      C        0.51653    0.49747    0.68767    1.000
    H15      H        0.52523    0.49767    0.82787    1.000
    Mn16     Mn       0.02470    0.38560    0.85800    1.000
    O46      O        0.03470    0.32920    0.63850    1.000
    O47      O        0.07290    0.30070    0.41110    1.000
    O48      O        0.08040    0.35720    0.98930    1.000
    C61      C        0.07450    0.32020    0.58070    1.000
    C62      C        0.12350    0.32880    0.71240    1.000
    C63      C        0.12180    0.34530    0.91020    1.000
    C64      C        0.16920    0.35240    0.02100    1.000
    H16      H        0.16900    0.36090    0.16120    1.000
    Mn17     Mn       0.69137    0.71893    0.19133    1.000
    O49      O        0.70137    0.66253    0.97183    1.000
    O50      O        0.73957    0.63403    0.74443    1.000
    O51      O        0.74707    0.69053    0.32263    1.000
    C65      C        0.74117    0.65353    0.91403    1.000
    C66      C        0.79017    0.66213    0.04573    1.000
    C67      C        0.78847    0.67863    0.24353    1.000
    C68      C        0.83587    0.68573    0.35433    1.000
    H17      H        0.83567    0.69423    0.49453    1.000
    Mn18     Mn       0.35803    0.05227    0.52467    1.000
    O52      O        0.36803    0.99587    0.30517    1.000
    O53      O        0.40623    0.96737    0.07777    1.000
    O54      O        0.41373    0.02387    0.65597    1.000
    C69      C        0.40783    0.98687    0.24737    1.000
    C70      C        0.45683    0.99547    0.37907    1.000
    C71      C        0.45513    0.01197    0.57687    1.000
    C72      C        0.50253    0.01907    0.68767    1.000
    H18      H        0.50233    0.02757    0.82787    1.000
