# CIF file generated by openbabel 3.1.0, see https://openbabel.org
data_I
_chemical_name_common 'image0'
_cell_length_a 20.136
_cell_length_b 21.19
_cell_length_c 17.292
_cell_angle_alpha 90
_cell_angle_beta 93.78
_cell_angle_gamma 90
_space_group_name_H-M_alt 'P 1'
_space_group_name_Hall 'P 1'
loop_
    _symmetry_equiv_pos_as_xyz
    x,y,z
loop_
    _atom_site_label
    _atom_site_type_symbol
    _atom_site_fract_x
    _atom_site_fract_y
    _atom_site_fract_z
    _atom_site_occupancy
    Co1      Co       0.10654    0.25704    0.10590    1.000
    O1       O        0.16659    0.32191    0.14923    1.000
    O2       O        0.26020    0.31655    0.08566    1.000
    O3       O        0.14607    0.26593    0.98570    1.000
    O4       O        0.04235    0.27641    0.01377    1.000
    O5       O        0.26172    0.67932    0.42101    1.000
    O6       O        0.36383    0.66916    0.37763    1.000
    N1       N        0.04106    0.25807    0.19512    1.000
    C1       C        0.22442    0.34018    0.13376    1.000
    C2       C        0.25140    0.39589    0.17954    1.000
    C3       C        0.21218    0.42697    0.22855    1.000
    H1       H        0.16850    0.41190    0.23510    1.000
    C4       C        0.23530    0.48117    0.26985    1.000
    C5       C        0.19510    0.51450    0.31990    1.000
    H2       H        0.15160    0.49950    0.32780    1.000
    C6       C        0.21769    0.56810    0.35710    1.000
    H3       H        0.18970    0.59040    0.38980    1.000
    C7       C        0.28278    0.59011    0.34694    1.000
    C8       C        0.32344    0.55855    0.29992    1.000
    H4       H        0.36720    0.57370    0.29410    1.000
    C9       C        0.30081    0.50323    0.25953    1.000
    C10      C        0.34125    0.46936    0.20980    1.000
    H5       H        0.38550    0.48310    0.20350    1.000
    C11      C        0.31734    0.41709    0.17070    1.000
    H6       H        0.34500    0.39490    0.13750    1.000
    C12      C        0.08602    0.27505    0.96379    1.000
    C13      C        0.30456    0.65065    0.38570    1.000
    C14      C        0.06504    0.28223    0.87971    1.000
    C15      C        0.11252    0.28280    0.82411    1.000
    H7       H        0.15860    0.28080    0.83990    1.000
    C16      C        0.09242    0.28620    0.74650    1.000
    H8       H        0.12490    0.28770    0.70910    1.000
    C17      C        0.99849    0.28609    0.85761    1.000
    H9       H        0.96700    0.28780    0.89610    1.000
    C18      C        0.02393    0.28759    0.72175    1.000
    C19      C        0.97600    0.25040    0.16510    1.000
    H10      H        0.97290    0.21260    0.13160    1.000
    H11      H        0.96250    0.28750    0.13300    1.000
    C20      C        0.06160    0.20580    0.25410    1.000
    H12      H        0.05520    0.16380    0.22970    1.000
    H13      H        0.10920    0.21050    0.27150    1.000
    C21      C        0.05180    0.31830    0.24210    1.000
    H14      H        0.04950    0.35550    0.20740    1.000
    H15      H        0.09600    0.31760    0.27070    1.000
    C22      C        0.98150    0.21170    0.17650    1.000
    H16      H        0.95400    0.22740    0.13100    1.000
    H17      H        0.99900    0.16960    0.16350    1.000
    C23      C        0.07070    0.24320    0.26980    1.000
    H18      H        0.10970    0.27100    0.28070    1.000
    H19      H        0.08690    0.19910    0.26940    1.000
    C24      C        0.00400    0.32150    0.20030    1.000
    H20      H        0.98430    0.33310    0.14830    1.000
    H21      H        0.03620    0.35490    0.21730    1.000
    Co2      Co       0.60654    0.75704    0.10590    1.000
    O7       O        0.66659    0.82191    0.14923    1.000
    O8       O        0.76020    0.81655    0.08566    1.000
    O9       O        0.64607    0.76593    0.98570    1.000
    O10      O        0.54235    0.77641    0.01377    1.000
    O11      O        0.76172    0.17932    0.42101    1.000
    O12      O        0.86383    0.16916    0.37763    1.000
    N2       N        0.54106    0.75807    0.19512    1.000
    C25      C        0.72442    0.84018    0.13376    1.000
    C26      C        0.75140    0.89589    0.17954    1.000
    C27      C        0.71218    0.92697    0.22855    1.000
    H22      H        0.66850    0.91190    0.23510    1.000
    C28      C        0.73530    0.98117    0.26985    1.000
    C29      C        0.69510    0.01450    0.31990    1.000
    H23      H        0.65160    0.99950    0.32780    1.000
    C30      C        0.71769    0.06810    0.35710    1.000
    H24      H        0.68970    0.09040    0.38980    1.000
    C31      C        0.78278    0.09011    0.34694    1.000
    C32      C        0.82344    0.05855    0.29992    1.000
    H25      H        0.86720    0.07370    0.29410    1.000
    C33      C        0.80081    0.00323    0.25953    1.000
    C34      C        0.84125    0.96936    0.20980    1.000
    H26      H        0.88550    0.98310    0.20350    1.000
    C35      C        0.81734    0.91709    0.17070    1.000
    H27      H        0.84500    0.89490    0.13750    1.000
    C36      C        0.58602    0.77505    0.96379    1.000
    C37      C        0.80456    0.15065    0.38570    1.000
    C38      C        0.56504    0.78223    0.87971    1.000
    C39      C        0.61252    0.78280    0.82411    1.000
    H28      H        0.65860    0.78080    0.83990    1.000
    C40      C        0.59242    0.78620    0.74650    1.000
    H29      H        0.62490    0.78770    0.70910    1.000
    C41      C        0.49849    0.78609    0.85761    1.000
    H30      H        0.46700    0.78780    0.89610    1.000
    C42      C        0.52393    0.78759    0.72175    1.000
    C43      C        0.47600    0.75040    0.16510    1.000
    H31      H        0.47290    0.71260    0.13160    1.000
    H32      H        0.46250    0.78750    0.13300    1.000
    C44      C        0.56160    0.70580    0.25410    1.000
    H33      H        0.55520    0.66380    0.22970    1.000
    H34      H        0.60920    0.71050    0.27150    1.000
    C45      C        0.55180    0.81830    0.24210    1.000
    H35      H        0.54950    0.85550    0.20740    1.000
    H36      H        0.59600    0.81760    0.27070    1.000
    C46      C        0.48150    0.71170    0.17650    1.000
    H37      H        0.45400    0.72740    0.13100    1.000
    H38      H        0.49900    0.66960    0.16350    1.000
    C47      C        0.57070    0.74320    0.26980    1.000
    H39      H        0.60970    0.77100    0.28070    1.000
    H40      H        0.58690    0.69910    0.26940    1.000
    C48      C        0.50400    0.82150    0.20030    1.000
    H41      H        0.48430    0.83310    0.14830    1.000
    H42      H        0.53620    0.85490    0.21730    1.000
    Co3      Co       0.89346    0.25704    0.39410    1.000
    O13      O        0.83341    0.32191    0.35077    1.000
    O14      O        0.73980    0.31655    0.41434    1.000
    O15      O        0.85393    0.26593    0.51430    1.000
    O16      O        0.95765    0.27641    0.48623    1.000
    O17      O        0.73828    0.67932    0.07899    1.000
    O18      O        0.63617    0.66916    0.12237    1.000
    N3       N        0.95894    0.25807    0.30488    1.000
    C49      C        0.77558    0.34018    0.36624    1.000
    C50      C        0.74860    0.39589    0.32046    1.000
    C51      C        0.78782    0.42697    0.27145    1.000
    H43      H        0.83150    0.41190    0.26490    1.000
    C52      C        0.76470    0.48117    0.23015    1.000
    C53      C        0.80490    0.51450    0.18010    1.000
    H44      H        0.84840    0.49950    0.17220    1.000
    C54      C        0.78231    0.56810    0.14290    1.000
    H45      H        0.81030    0.59040    0.11020    1.000
    C55      C        0.71722    0.59011    0.15306    1.000
    C56      C        0.67656    0.55855    0.20008    1.000
    H46      H        0.63280    0.57370    0.20590    1.000
    C57      C        0.69919    0.50323    0.24047    1.000
    C58      C        0.65875    0.46936    0.29020    1.000
    H47      H        0.61450    0.48310    0.29650    1.000
    C59      C        0.68266    0.41709    0.32930    1.000
    H48      H        0.65500    0.39490    0.36250    1.000
    C60      C        0.91398    0.27505    0.53621    1.000
    C61      C        0.69544    0.65065    0.11430    1.000
    C62      C        0.93496    0.28223    0.62029    1.000
    C63      C        0.88748    0.28280    0.67589    1.000
    H49      H        0.84140    0.28080    0.66010    1.000
    C64      C        0.90758    0.28620    0.75350    1.000
    H50      H        0.87510    0.28770    0.79090    1.000
    C65      C        0.00151    0.28609    0.64239    1.000
    H51      H        0.03300    0.28780    0.60390    1.000
    C66      C        0.97607    0.28759    0.77825    1.000
    C67      C        0.02400    0.25040    0.33490    1.000
    H52      H        0.02710    0.21260    0.36840    1.000
    H53      H        0.03750    0.28750    0.36700    1.000
    C68      C        0.93840    0.20580    0.24590    1.000
    H54      H        0.94480    0.16380    0.27030    1.000
    H55      H        0.89080    0.21050    0.22850    1.000
    C69      C        0.94820    0.31830    0.25790    1.000
    H56      H        0.95050    0.35550    0.29260    1.000
    H57      H        0.90400    0.31760    0.22930    1.000
    C70      C        0.01850    0.21170    0.32350    1.000
    H58      H        0.04600    0.22740    0.36900    1.000
    H59      H        0.00100    0.16960    0.33650    1.000
    C71      C        0.92930    0.24320    0.23020    1.000
    H60      H        0.89030    0.27100    0.21930    1.000
    H61      H        0.91310    0.19910    0.23060    1.000
    C72      C        0.99600    0.32150    0.29970    1.000
    H62      H        0.01570    0.33310    0.35170    1.000
    H63      H        0.96380    0.35490    0.28270    1.000
    Co4      Co       0.39346    0.75704    0.39410    1.000
    O19      O        0.33341    0.82191    0.35077    1.000
    O20      O        0.23980    0.81655    0.41434    1.000
    O21      O        0.35393    0.76593    0.51430    1.000
    O22      O        0.45765    0.77641    0.48623    1.000
    O23      O        0.23828    0.17932    0.07899    1.000
    O24      O        0.13617    0.16916    0.12237    1.000
    N4       N        0.45894    0.75807    0.30488    1.000
    C73      C        0.27558    0.84018    0.36624    1.000
    C74      C        0.24860    0.89589    0.32046    1.000
    C75      C        0.28782    0.92697    0.27145    1.000
    H64      H        0.33150    0.91190    0.26490    1.000
    C76      C        0.26470    0.98117    0.23015    1.000
    C77      C        0.30490    0.01450    0.18010    1.000
    H65      H        0.34840    0.99950    0.17220    1.000
    C78      C        0.28231    0.06810    0.14290    1.000
    H66      H        0.31030    0.09040    0.11020    1.000
    C79      C        0.21722    0.09011    0.15306    1.000
    C80      C        0.17656    0.05855    0.20008    1.000
    H67      H        0.13280    0.07370    0.20590    1.000
    C81      C        0.19919    0.00323    0.24047    1.000
    C82      C        0.15875    0.96936    0.29020    1.000
    H68      H        0.11450    0.98310    0.29650    1.000
    C83      C        0.18266    0.91709    0.32930    1.000
    H69      H        0.15500    0.89490    0.36250    1.000
    C84      C        0.41398    0.77505    0.53621    1.000
    C85      C        0.19544    0.15065    0.11430    1.000
    C86      C        0.43496    0.78223    0.62029    1.000
    C87      C        0.38748    0.78280    0.67589    1.000
    H70      H        0.34140    0.78080    0.66010    1.000
    C88      C        0.40758    0.78620    0.75350    1.000
    H71      H        0.37510    0.78770    0.79090    1.000
    C89      C        0.50151    0.78609    0.64239    1.000
    H72      H        0.53300    0.78780    0.60390    1.000
    C90      C        0.47607    0.78759    0.77825    1.000
    C91      C        0.52400    0.75040    0.33490    1.000
    H73      H        0.52710    0.71260    0.36840    1.000
    H74      H        0.53750    0.78750    0.36700    1.000
    C92      C        0.43840    0.70580    0.24590    1.000
    H75      H        0.44480    0.66380    0.27030    1.000
    H76      H        0.39080    0.71050    0.22850    1.000
    C93      C        0.44820    0.81830    0.25790    1.000
    H77      H        0.45050    0.85550    0.29260    1.000
    H78      H        0.40400    0.81760    0.22930    1.000
    C94      C        0.51850    0.71170    0.32350    1.000
    H79      H        0.54600    0.72740    0.36900    1.000
    H80      H        0.50100    0.66960    0.33650    1.000
    C95      C        0.42930    0.74320    0.23020    1.000
    H81      H        0.39030    0.77100    0.21930    1.000
    H82      H        0.41310    0.69910    0.23060    1.000
    C96      C        0.49600    0.82150    0.29970    1.000
    H83      H        0.51570    0.83310    0.35170    1.000
    H84      H        0.46380    0.85490    0.28270    1.000
    Co5      Co       0.89346    0.74296    0.89410    1.000
    O25      O        0.83341    0.67809    0.85077    1.000
    O26      O        0.73980    0.68345    0.91434    1.000
    O27      O        0.85393    0.73407    0.01430    1.000
    O28      O        0.95765    0.72359    0.98623    1.000
    O29      O        0.73828    0.32068    0.57899    1.000
    O30      O        0.63617    0.33084    0.62237    1.000
    N5       N        0.95894    0.74193    0.80488    1.000
    C97      C        0.77558    0.65982    0.86624    1.000
    C98      C        0.74860    0.60411    0.82046    1.000
    C99      C        0.78782    0.57303    0.77145    1.000
    H85      H        0.83150    0.58810    0.76490    1.000
    C100     C        0.76470    0.51883    0.73015    1.000
    C101     C        0.80490    0.48550    0.68010    1.000
    H86      H        0.84840    0.50050    0.67220    1.000
    C102     C        0.78231    0.43190    0.64290    1.000
    H87      H        0.81030    0.40960    0.61020    1.000
    C103     C        0.71722    0.40989    0.65306    1.000
    C104     C        0.67656    0.44145    0.70008    1.000
    H88      H        0.63280    0.42630    0.70590    1.000
    C105     C        0.69919    0.49677    0.74047    1.000
    C106     C        0.65875    0.53064    0.79020    1.000
    H89      H        0.61450    0.51690    0.79650    1.000
    C107     C        0.68266    0.58291    0.82930    1.000
    H90      H        0.65500    0.60510    0.86250    1.000
    C108     C        0.91398    0.72495    0.03621    1.000
    C109     C        0.69544    0.34935    0.61430    1.000
    C110     C        0.93496    0.71777    0.12029    1.000
    C111     C        0.88748    0.71720    0.17589    1.000
    H91      H        0.84140    0.71920    0.16010    1.000
    C112     C        0.90758    0.71380    0.25350    1.000
    H92      H        0.87510    0.71230    0.29090    1.000
    C113     C        0.00151    0.71391    0.14239    1.000
    H93      H        0.03300    0.71220    0.10390    1.000
    C114     C        0.97607    0.71241    0.27825    1.000
    C115     C        0.02400    0.74960    0.83490    1.000
    H94      H        0.02710    0.78740    0.86840    1.000
    H95      H        0.03750    0.71250    0.86700    1.000
    C116     C        0.93840    0.79420    0.74590    1.000
    H96      H        0.94480    0.83620    0.77030    1.000
    H97      H        0.89080    0.78950    0.72850    1.000
    C117     C        0.94820    0.68170    0.75790    1.000
    H98      H        0.95050    0.64450    0.79260    1.000
    H99      H        0.90400    0.68240    0.72930    1.000
    C118     C        0.01850    0.78830    0.82350    1.000
    H100     H        0.04600    0.77260    0.86900    1.000
    H101     H        0.00100    0.83040    0.83650    1.000
    C119     C        0.92930    0.75680    0.73020    1.000
    H102     H        0.89030    0.72900    0.71930    1.000
    H103     H        0.91310    0.80090    0.73060    1.000
    C120     C        0.99600    0.67850    0.79970    1.000
    H104     H        0.01570    0.66690    0.85170    1.000
    H105     H        0.96380    0.64510    0.78270    1.000
    Co6      Co       0.39346    0.24296    0.89410    1.000
    O31      O        0.33341    0.17809    0.85077    1.000
    O32      O        0.23980    0.18345    0.91434    1.000
    O33      O        0.35393    0.23407    0.01430    1.000
    O34      O        0.45765    0.22359    0.98623    1.000
    O35      O        0.23828    0.82068    0.57899    1.000
    O36      O        0.13617    0.83084    0.62237    1.000
    N6       N        0.45894    0.24193    0.80488    1.000
    C121     C        0.27558    0.15982    0.86624    1.000
    C122     C        0.24860    0.10411    0.82046    1.000
    C123     C        0.28782    0.07303    0.77145    1.000
    H106     H        0.33150    0.08810    0.76490    1.000
    C124     C        0.26470    0.01883    0.73015    1.000
    C125     C        0.30490    0.98550    0.68010    1.000
    H107     H        0.34840    0.00050    0.67220    1.000
    C126     C        0.28231    0.93190    0.64290    1.000
    H108     H        0.31030    0.90960    0.61020    1.000
    C127     C        0.21722    0.90989    0.65306    1.000
    C128     C        0.17656    0.94145    0.70008    1.000
    H109     H        0.13280    0.92630    0.70590    1.000
    C129     C        0.19919    0.99677    0.74047    1.000
    C130     C        0.15875    0.03064    0.79020    1.000
    H110     H        0.11450    0.01690    0.79650    1.000
    C131     C        0.18266    0.08291    0.82930    1.000
    H111     H        0.15500    0.10510    0.86250    1.000
    C132     C        0.41398    0.22495    0.03621    1.000
    C133     C        0.19544    0.84935    0.61430    1.000
    C134     C        0.43496    0.21777    0.12029    1.000
    C135     C        0.38748    0.21720    0.17589    1.000
    H112     H        0.34140    0.21920    0.16010    1.000
    C136     C        0.40758    0.21380    0.25350    1.000
    H113     H        0.37510    0.21230    0.29090    1.000
    C137     C        0.50151    0.21391    0.14239    1.000
    H114     H        0.53300    0.21220    0.10390    1.000
    C138     C        0.47607    0.21241    0.27825    1.000
    C139     C        0.52400    0.24960    0.83490    1.000
    H115     H        0.52710    0.28740    0.86840    1.000
    H116     H        0.53750    0.21250    0.86700    1.000
    C140     C        0.43840    0.29420    0.74590    1.000
    H117     H        0.44480    0.33620    0.77030    1.000
    H118     H        0.39080    0.28950    0.72850    1.000
    C141     C        0.44820    0.18170    0.75790    1.000
    H119     H        0.45050    0.14450    0.79260    1.000
    H120     H        0.40400    0.18240    0.72930    1.000
    C142     C        0.51850    0.28830    0.82350    1.000
    H121     H        0.54600    0.27260    0.86900    1.000
    H122     H        0.50100    0.33040    0.83650    1.000
    C143     C        0.42930    0.25680    0.73020    1.000
    H123     H        0.39030    0.22900    0.71930    1.000
    H124     H        0.41310    0.30090    0.73060    1.000
    C144     C        0.49600    0.17850    0.79970    1.000
    H125     H        0.51570    0.16690    0.85170    1.000
    H126     H        0.46380    0.14510    0.78270    1.000
    Co7      Co       0.10654    0.74296    0.60590    1.000
    O37      O        0.16659    0.67809    0.64923    1.000
    O38      O        0.26020    0.68345    0.58566    1.000
    O39      O        0.14607    0.73407    0.48570    1.000
    O40      O        0.04235    0.72359    0.51377    1.000
    O41      O        0.26172    0.32068    0.92101    1.000
    O42      O        0.36383    0.33084    0.87763    1.000
    N7       N        0.04106    0.74193    0.69512    1.000
    C145     C        0.22442    0.65982    0.63376    1.000
    C146     C        0.25140    0.60411    0.67954    1.000
    C147     C        0.21218    0.57303    0.72855    1.000
    H127     H        0.16850    0.58810    0.73510    1.000
    C148     C        0.23530    0.51883    0.76985    1.000
    C149     C        0.19510    0.48550    0.81990    1.000
    H128     H        0.15160    0.50050    0.82780    1.000
    C150     C        0.21769    0.43190    0.85710    1.000
    H129     H        0.18970    0.40960    0.88980    1.000
    C151     C        0.28278    0.40989    0.84694    1.000
    C152     C        0.32344    0.44145    0.79992    1.000
    H130     H        0.36720    0.42630    0.79410    1.000
    C153     C        0.30081    0.49677    0.75953    1.000
    C154     C        0.34125    0.53064    0.70980    1.000
    H131     H        0.38550    0.51690    0.70350    1.000
    C155     C        0.31734    0.58291    0.67070    1.000
    H132     H        0.34500    0.60510    0.63750    1.000
    C156     C        0.08602    0.72495    0.46379    1.000
    C157     C        0.30456    0.34935    0.88570    1.000
    C158     C        0.06504    0.71777    0.37971    1.000
    C159     C        0.11252    0.71720    0.32411    1.000
    H133     H        0.15860    0.71920    0.33990    1.000
    C160     C        0.09242    0.71380    0.24650    1.000
    H134     H        0.12490    0.71230    0.20910    1.000
    C161     C        0.99849    0.71391    0.35761    1.000
    H135     H        0.96700    0.71220    0.39610    1.000
    C162     C        0.02393    0.71241    0.22175    1.000
    C163     C        0.97600    0.74960    0.66510    1.000
    H136     H        0.97290    0.78740    0.63160    1.000
    H137     H        0.96250    0.71250    0.63300    1.000
    C164     C        0.06160    0.79420    0.75410    1.000
    H138     H        0.05520    0.83620    0.72970    1.000
    H139     H        0.10920    0.78950    0.77150    1.000
    C165     C        0.05180    0.68170    0.74210    1.000
    H140     H        0.04950    0.64450    0.70740    1.000
    H141     H        0.09600    0.68240    0.77070    1.000
    C166     C        0.98150    0.78830    0.67650    1.000
    H142     H        0.95400    0.77260    0.63100    1.000
    H143     H        0.99900    0.83040    0.66350    1.000
    C167     C        0.07070    0.75680    0.76980    1.000
    H144     H        0.10970    0.72900    0.78070    1.000
    H145     H        0.08690    0.80090    0.76940    1.000
    C168     C        0.00400    0.67850    0.70030    1.000
    H146     H        0.98430    0.66690    0.64830    1.000
    H147     H        0.03620    0.64510    0.71730    1.000
    Co8      Co       0.60654    0.24296    0.60590    1.000
    O43      O        0.66659    0.17809    0.64923    1.000
    O44      O        0.76020    0.18345    0.58566    1.000
    O45      O        0.64607    0.23407    0.48570    1.000
    O46      O        0.54235    0.22359    0.51377    1.000
    O47      O        0.76172    0.82068    0.92101    1.000
    O48      O        0.86383    0.83084    0.87763    1.000
    N8       N        0.54106    0.24193    0.69512    1.000
    C169     C        0.72442    0.15982    0.63376    1.000
    C170     C        0.75140    0.10411    0.67954    1.000
    C171     C        0.71218    0.07303    0.72855    1.000
    H148     H        0.66850    0.08810    0.73510    1.000
    C172     C        0.73530    0.01883    0.76985    1.000
    C173     C        0.69510    0.98550    0.81990    1.000
    H149     H        0.65160    0.00050    0.82780    1.000
    C174     C        0.71769    0.93190    0.85710    1.000
    H150     H        0.68970    0.90960    0.88980    1.000
    C175     C        0.78278    0.90989    0.84694    1.000
    C176     C        0.82344    0.94145    0.79992    1.000
    H151     H        0.86720    0.92630    0.79410    1.000
    C177     C        0.80081    0.99677    0.75953    1.000
    C178     C        0.84125    0.03064    0.70980    1.000
    H152     H        0.88550    0.01690    0.70350    1.000
    C179     C        0.81734    0.08291    0.67070    1.000
    H153     H        0.84500    0.10510    0.63750    1.000
    C180     C        0.58602    0.22495    0.46379    1.000
    C181     C        0.80456    0.84935    0.88570    1.000
    C182     C        0.56504    0.21777    0.37971    1.000
    C183     C        0.61252    0.21720    0.32411    1.000
    H154     H        0.65860    0.21920    0.33990    1.000
    C184     C        0.59242    0.21380    0.24650    1.000
    H155     H        0.62490    0.21230    0.20910    1.000
    C185     C        0.49849    0.21391    0.35761    1.000
    H156     H        0.46700    0.21220    0.39610    1.000
    C186     C        0.52393    0.21241    0.22175    1.000
    C187     C        0.47600    0.24960    0.66510    1.000
    H157     H        0.47290    0.28740    0.63160    1.000
    H158     H        0.46250    0.21250    0.63300    1.000
    C188     C        0.56160    0.29420    0.75410    1.000
    H159     H        0.55520    0.33620    0.72970    1.000
    H160     H        0.60920    0.28950    0.77150    1.000
    C189     C        0.55180    0.18170    0.74210    1.000
    H161     H        0.54950    0.14450    0.70740    1.000
    H162     H        0.59600    0.18240    0.77070    1.000
    C190     C        0.48150    0.28830    0.67650    1.000
    H163     H        0.45400    0.27260    0.63100    1.000
    H164     H        0.49900    0.33040    0.66350    1.000
    C191     C        0.57070    0.25680    0.76980    1.000
    H165     H        0.60970    0.22900    0.78070    1.000
    H166     H        0.58690    0.30090    0.76940    1.000
    C192     C        0.50400    0.17850    0.70030    1.000
    H167     H        0.48430    0.16690    0.64830    1.000
    H168     H        0.53620    0.14510    0.71730    1.000
    Co9      Co       0.25000    0.25000    0.00000    1.000
    Co10     Co       0.75000    0.25000    0.50000    1.000
    Co11     Co       0.75000    0.75000    0.00000    1.000
    Co12     Co       0.25000    0.75000    0.50000    1.000
