# CIF file generated by openbabel 3.1.0, see https://openbabel.org
data_I
_chemical_name_common 'image0'
_cell_length_a 26.9695
_cell_length_b 14.7086
_cell_length_c 9.9706
_cell_angle_alpha 90
_cell_angle_beta 98.081
_cell_angle_gamma 90
_space_group_name_H-M_alt 'P 1'
_space_group_name_Hall 'P 1'
loop_
    _symmetry_equiv_pos_as_xyz
    x,y,z
loop_
    _atom_site_label
    _atom_site_type_symbol
    _atom_site_fract_x
    _atom_site_fract_y
    _atom_site_fract_z
    _atom_site_occupancy
    C1       C        0.04429    0.48230    0.27190    1.000
    C2       C        0.08486    0.49700    0.18510    1.000
    C3       C        0.12879    0.54180    0.23670    1.000
    H1       H        0.13230    0.56560    0.32400    1.000
    C4       C        0.16719    0.55150    0.16050    1.000
    H2       H        0.19650    0.58160    0.19560    1.000
    C5       C        0.16180    0.51620    0.03270    1.000
    C6       C        0.11839    0.47350    0.97730    1.000
    H3       H        0.11500    0.45080    0.88950    1.000
    C7       C        0.07973    0.46490    0.05480    1.000
    H4       H        0.05000    0.43710    0.01780    1.000
    C8       C        0.24843    0.51610    0.00000    1.000
    C9       C        0.26517    0.45690    0.10280    1.000
    H5       H        0.24240    0.42410    0.14560    1.000
    C10      C        0.31599    0.44600    0.14260    1.000
    H6       H        0.32720    0.40630    0.21300    1.000
    C11      C        0.35006    0.49310    0.07960    1.000
    C12      C        0.40521    0.47860    0.11930    1.000
    C13      C        0.33272    0.55150    0.97690    1.000
    H7       H        0.35560    0.58320    0.93300    1.000
    C14      C        0.28195    0.56480    0.93640    1.000
    H8       H        0.27080    0.60580    0.86770    1.000
    C15      C        0.56897    0.91610    0.71570    1.000
    H9       H        0.59530    0.94940    0.68940    1.000
    C16      C        0.49720    0.86030    0.72250    1.000
    H10      H        0.46330    0.84750    0.70080    1.000
    C17      C        0.52721    0.82510    0.82870    1.000
    H11      H        0.51820    0.78420    0.89240    1.000
    C18      C        0.61864    0.84230    0.91110    1.000
    C19      C        0.62361    0.76540    0.98720    1.000
    H12      H        0.59650    0.72630    0.98720    1.000
    C20      C        0.66884    0.74530    0.06460    1.000
    H13      H        0.67130    0.69320    0.11790    1.000
    C21      C        0.71036    0.79960    0.06570    1.000
    C22      C        0.70318    0.87870    0.99240    1.000
    H14      H        0.72980    0.91910    0.99390    1.000
    C23      C        0.65812    0.90030    0.91700    1.000
    H15      H        0.65460    0.95490    0.86970    1.000
    C24      C        0.76011    0.77400    0.13680    1.000
    C25      C        0.76709    0.68600    0.18640    1.000
    H16      H        0.74020    0.64610    0.18230    1.000
    C26      C        0.81498    0.65820    0.24240    1.000
    H17      H        0.82020    0.59870    0.27290    1.000
    C27      C        0.85664    0.72130    0.25340    1.000
    C28      C        0.84623    0.80650    0.20730    1.000
    H18      H        0.87200    0.84900    0.21380    1.000
    C29      C        0.79882    0.83280    0.15080    1.000
    H19      H        0.79340    0.89250    0.12170    1.000
    C30      C        0.91878    0.62171    0.38878    1.000
    H20      H        0.89580    0.58750    0.42870    1.000
    N1       N        0.96719    0.60713    0.40742    1.000
    C31      C        0.95063    0.72415    0.26711    1.000
    H21      H        0.95430    0.77240    0.20900    1.000
    N2       N        0.52333    0.91728    0.65130    1.000
    N3       N        0.57350    0.86137    0.82430    1.000
    N4       N        0.90629    0.69250    0.30460    1.000
    C32      C        0.98715    0.67190    0.33030    1.000
    H22      H        0.02100    0.67820    0.32330    1.000
    O1       O        0.00482    0.44356    0.22060    1.000
    O2       O        0.05372    0.50993    0.39320    1.000
    O3       O        0.43161    0.51012    0.03570    1.000
    O4       O        0.42014    0.43750    0.22440    1.000
    O5       O        0.19830    0.52700    0.94770    1.000
    C33      C        0.22760    0.23750    0.23770    1.000
    C34      C        0.18050    0.21570    0.17420    1.000
    C35      C        0.14810    0.26710    0.36410    1.000
    C36      C        0.19610    0.29100    0.42100    1.000
    H23      H        0.25400    0.22600    0.18940    1.000
    H24      H        0.17500    0.19770    0.08390    1.000
    H25      H        0.12030    0.28200    0.40540    1.000
    H26      H        0.19970    0.32080    0.50410    1.000
    C37      C        0.95571    0.98230    0.22810    1.000
    C38      C        0.91514    0.99700    0.31490    1.000
    C39      C        0.87121    0.04180    0.26330    1.000
    H27      H        0.86770    0.06560    0.17600    1.000
    C40      C        0.83281    0.05150    0.33950    1.000
    H28      H        0.80350    0.08160    0.30440    1.000
    C41      C        0.83820    0.01620    0.46730    1.000
    C42      C        0.88161    0.97350    0.52270    1.000
    H29      H        0.88500    0.95080    0.61050    1.000
    C43      C        0.92027    0.96490    0.44520    1.000
    H30      H        0.95000    0.93710    0.48220    1.000
    C44      C        0.75157    0.01610    0.50000    1.000
    C45      C        0.73483    0.95690    0.39720    1.000
    H31      H        0.75760    0.92410    0.35440    1.000
    C46      C        0.68401    0.94600    0.35740    1.000
    H32      H        0.67280    0.90630    0.28700    1.000
    C47      C        0.64994    0.99310    0.42040    1.000
    C48      C        0.59479    0.97860    0.38070    1.000
    C49      C        0.66728    0.05150    0.52310    1.000
    H33      H        0.64440    0.08320    0.56700    1.000
    C50      C        0.71805    0.06480    0.56360    1.000
    H34      H        0.72920    0.10580    0.63230    1.000
    C51      C        0.43103    0.41610    0.78430    1.000
    H35      H        0.40470    0.44940    0.81060    1.000
    C52      C        0.50280    0.36030    0.77750    1.000
    H36      H        0.53670    0.34750    0.79920    1.000
    C53      C        0.47279    0.32510    0.67130    1.000
    H37      H        0.48180    0.28420    0.60760    1.000
    C54      C        0.38136    0.34230    0.58890    1.000
    C55      C        0.37639    0.26540    0.51280    1.000
    H38      H        0.40350    0.22630    0.51280    1.000
    C56      C        0.33116    0.24530    0.43540    1.000
    H39      H        0.32870    0.19320    0.38210    1.000
    C57      C        0.28964    0.29960    0.43430    1.000
    C58      C        0.29682    0.37870    0.50760    1.000
    H40      H        0.27020    0.41910    0.50610    1.000
    C59      C        0.34188    0.40030    0.58300    1.000
    H41      H        0.34540    0.45490    0.63030    1.000
    C60      C        0.23989    0.27400    0.36320    1.000
    C61      C        0.23291    0.18600    0.31360    1.000
    H42      H        0.25980    0.14610    0.31770    1.000
    C62      C        0.18502    0.15820    0.25760    1.000
    H43      H        0.17980    0.09870    0.22710    1.000
    C63      C        0.14336    0.22130    0.24660    1.000
    C64      C        0.15377    0.30650    0.29270    1.000
    H44      H        0.12800    0.34900    0.28620    1.000
    C65      C        0.20118    0.33280    0.34920    1.000
    H45      H        0.20660    0.39250    0.37830    1.000
    C66      C        0.08122    0.12171    0.11122    1.000
    H46      H        0.10420    0.08750    0.07130    1.000
    N5       N        0.03281    0.10713    0.09258    1.000
    C67      C        0.04937    0.22415    0.23289    1.000
    H47      H        0.04570    0.27240    0.29100    1.000
    N6       N        0.47667    0.41728    0.84870    1.000
    N7       N        0.42650    0.36137    0.67570    1.000
    N8       N        0.09371    0.19250    0.19540    1.000
    C68      C        0.01285    0.17190    0.16970    1.000
    H48      H        0.97900    0.17820    0.17670    1.000
    O6       O        0.99518    0.94356    0.27940    1.000
    O7       O        0.94628    0.00993    0.10680    1.000
    O8       O        0.56839    0.01012    0.46430    1.000
    O9       O        0.57986    0.93750    0.27560    1.000
    O10      O        0.80170    0.02700    0.55230    1.000
    C69      C        0.77240    0.73750    0.26230    1.000
    C70      C        0.81950    0.71570    0.32580    1.000
    C71      C        0.85190    0.76710    0.13590    1.000
    C72      C        0.80390    0.79100    0.07900    1.000
    H49      H        0.74600    0.72600    0.31060    1.000
    H50      H        0.82500    0.69770    0.41610    1.000
    H51      H        0.87970    0.78200    0.09460    1.000
    H52      H        0.80030    0.82080    0.99590    1.000
    C73      C        0.95571    0.51770    0.72810    1.000
    C74      C        0.91514    0.50300    0.81490    1.000
    C75      C        0.87121    0.45820    0.76330    1.000
    H53      H        0.86770    0.43440    0.67600    1.000
    C76      C        0.83281    0.44850    0.83950    1.000
    H54      H        0.80350    0.41840    0.80440    1.000
    C77      C        0.83820    0.48380    0.96730    1.000
    C78      C        0.88161    0.52650    0.02270    1.000
    H55      H        0.88500    0.54920    0.11050    1.000
    C79      C        0.92027    0.53510    0.94520    1.000
    H56      H        0.95000    0.56290    0.98220    1.000
    C80      C        0.75157    0.48390    0.00000    1.000
    C81      C        0.73483    0.54310    0.89720    1.000
    H57      H        0.75760    0.57590    0.85440    1.000
    C82      C        0.68401    0.55400    0.85740    1.000
    H58      H        0.67280    0.59370    0.78700    1.000
    C83      C        0.64994    0.50690    0.92040    1.000
    C84      C        0.59479    0.52140    0.88070    1.000
    C85      C        0.66728    0.44850    0.02310    1.000
    H59      H        0.64440    0.41680    0.06700    1.000
    C86      C        0.71805    0.43520    0.06360    1.000
    H60      H        0.72920    0.39420    0.13230    1.000
    C87      C        0.43103    0.08390    0.28430    1.000
    H61      H        0.40470    0.05060    0.31060    1.000
    C88      C        0.50280    0.13970    0.27750    1.000
    H62      H        0.53670    0.15250    0.29920    1.000
    C89      C        0.47279    0.17490    0.17130    1.000
    H63      H        0.48180    0.21580    0.10760    1.000
    C90      C        0.38136    0.15770    0.08890    1.000
    C91      C        0.37639    0.23460    0.01280    1.000
    H64      H        0.40350    0.27370    0.01280    1.000
    C92      C        0.33116    0.25470    0.93540    1.000
    H65      H        0.32870    0.30680    0.88210    1.000
    C93      C        0.28964    0.20040    0.93430    1.000
    C94      C        0.29682    0.12130    0.00760    1.000
    H66      H        0.27020    0.08090    0.00610    1.000
    C95      C        0.34188    0.09970    0.08300    1.000
    H67      H        0.34540    0.04510    0.13030    1.000
    C96      C        0.23989    0.22600    0.86320    1.000
    C97      C        0.23291    0.31400    0.81360    1.000
    H68      H        0.25980    0.35390    0.81770    1.000
    C98      C        0.18502    0.34180    0.75760    1.000
    H69      H        0.17980    0.40130    0.72710    1.000
    C99      C        0.14336    0.27870    0.74660    1.000
    C100     C        0.15377    0.19350    0.79270    1.000
    H70      H        0.12800    0.15100    0.78620    1.000
    C101     C        0.20118    0.16720    0.84920    1.000
    H71      H        0.20660    0.10750    0.87830    1.000
    C102     C        0.08122    0.37829    0.61122    1.000
    H72      H        0.10420    0.41250    0.57130    1.000
    N9       N        0.03281    0.39287    0.59258    1.000
    C103     C        0.04937    0.27585    0.73289    1.000
    H73      H        0.04570    0.22760    0.79100    1.000
    N10      N        0.47667    0.08272    0.34870    1.000
    N11      N        0.42650    0.13863    0.17570    1.000
    N12      N        0.09371    0.30750    0.69540    1.000
    C104     C        0.01285    0.32810    0.66970    1.000
    H74      H        0.97900    0.32180    0.67670    1.000
    O11      O        0.99518    0.55644    0.77940    1.000
    O12      O        0.94628    0.49007    0.60680    1.000
    O13      O        0.56839    0.48988    0.96430    1.000
    O14      O        0.57986    0.56250    0.77560    1.000
    O15      O        0.80170    0.47300    0.05230    1.000
    C105     C        0.77240    0.76250    0.76230    1.000
    C106     C        0.81950    0.78430    0.82580    1.000
    C107     C        0.85190    0.73290    0.63590    1.000
    C108     C        0.80390    0.70900    0.57900    1.000
    H75      H        0.74600    0.77400    0.81060    1.000
    H76      H        0.82500    0.80230    0.91610    1.000
    H77      H        0.87970    0.71800    0.59460    1.000
    H78      H        0.80030    0.67920    0.49590    1.000
    C109     C        0.04429    0.01770    0.77190    1.000
    C110     C        0.08486    0.00300    0.68510    1.000
    C111     C        0.12879    0.95820    0.73670    1.000
    H79      H        0.13230    0.93440    0.82400    1.000
    C112     C        0.16719    0.94850    0.66050    1.000
    H80      H        0.19650    0.91840    0.69560    1.000
    C113     C        0.16180    0.98380    0.53270    1.000
    C114     C        0.11839    0.02650    0.47730    1.000
    H81      H        0.11500    0.04920    0.38950    1.000
    C115     C        0.07973    0.03510    0.55480    1.000
    H82      H        0.05000    0.06290    0.51780    1.000
    C116     C        0.24843    0.98390    0.50000    1.000
    C117     C        0.26517    0.04310    0.60280    1.000
    H83      H        0.24240    0.07590    0.64560    1.000
    C118     C        0.31599    0.05400    0.64260    1.000
    H84      H        0.32720    0.09370    0.71300    1.000
    C119     C        0.35006    0.00690    0.57960    1.000
    C120     C        0.40521    0.02140    0.61930    1.000
    C121     C        0.33272    0.94850    0.47690    1.000
    H85      H        0.35560    0.91680    0.43300    1.000
    C122     C        0.28195    0.93520    0.43640    1.000
    H86      H        0.27080    0.89420    0.36770    1.000
    C123     C        0.56897    0.58390    0.21570    1.000
    H87      H        0.59530    0.55060    0.18940    1.000
    C124     C        0.49720    0.63970    0.22250    1.000
    H88      H        0.46330    0.65250    0.20080    1.000
    C125     C        0.52721    0.67490    0.32870    1.000
    H89      H        0.51820    0.71580    0.39240    1.000
    C126     C        0.61864    0.65770    0.41110    1.000
    C127     C        0.62361    0.73460    0.48720    1.000
    H90      H        0.59650    0.77370    0.48720    1.000
    C128     C        0.66884    0.75470    0.56460    1.000
    H91      H        0.67130    0.80680    0.61790    1.000
    C129     C        0.71036    0.70040    0.56570    1.000
    C130     C        0.70318    0.62130    0.49240    1.000
    H92      H        0.72980    0.58090    0.49390    1.000
    C131     C        0.65812    0.59970    0.41700    1.000
    H93      H        0.65460    0.54510    0.36970    1.000
    C132     C        0.76011    0.72600    0.63680    1.000
    C133     C        0.76709    0.81400    0.68640    1.000
    H94      H        0.74020    0.85390    0.68230    1.000
    C134     C        0.81498    0.84180    0.74240    1.000
    H95      H        0.82020    0.90130    0.77290    1.000
    C135     C        0.85664    0.77870    0.75340    1.000
    C136     C        0.84623    0.69350    0.70730    1.000
    H96      H        0.87200    0.65100    0.71380    1.000
    C137     C        0.79882    0.66720    0.65080    1.000
    H97      H        0.79340    0.60750    0.62170    1.000
    C138     C        0.91878    0.87829    0.88878    1.000
    H98      H        0.89580    0.91250    0.92870    1.000
    N13      N        0.96719    0.89287    0.90742    1.000
    C139     C        0.95063    0.77585    0.76711    1.000
    H99      H        0.95430    0.72760    0.70900    1.000
    N14      N        0.52333    0.58272    0.15130    1.000
    N15      N        0.57350    0.63863    0.32430    1.000
    N16      N        0.90629    0.80750    0.80460    1.000
    C140     C        0.98715    0.82810    0.83030    1.000
    H100     H        0.02100    0.82180    0.82330    1.000
    O16      O        0.00482    0.05644    0.72060    1.000
    O17      O        0.05372    0.99007    0.89320    1.000
    O18      O        0.43161    0.98988    0.53570    1.000
    O19      O        0.42014    0.06250    0.72440    1.000
    O20      O        0.19830    0.97300    0.44770    1.000
    C141     C        0.22760    0.26250    0.73770    1.000
    C142     C        0.18050    0.28430    0.67420    1.000
    C143     C        0.14810    0.23290    0.86410    1.000
    C144     C        0.19610    0.20900    0.92100    1.000
    H101     H        0.25400    0.27400    0.68940    1.000
    H102     H        0.17500    0.30230    0.58390    1.000
    H103     H        0.12030    0.21800    0.90540    1.000
    H104     H        0.19970    0.17920    0.00410    1.000
    Cu1      Cu       0.00000    0.50000    0.50000    1.000
    Cu2      Cu       0.00000    0.00000    0.00000    1.000
    Cu3      Cu       0.50000    0.00000    0.50000    1.000
    Cu4      Cu       0.50000    0.50000    0.00000    1.000
