# CIF file generated by openbabel 3.1.0, see https://openbabel.org
data_I
_chemical_name_common 'image0'
_cell_length_a 10.539
_cell_length_b 11.218
_cell_length_c 12.842
_cell_angle_alpha 101.472
_cell_angle_beta 110.5
_cell_angle_gamma 99.257
_space_group_name_H-M_alt 'P 1'
_space_group_name_Hall 'P 1'
loop_
    _symmetry_equiv_pos_as_xyz
    x,y,z
loop_
    _atom_site_label
    _atom_site_type_symbol
    _atom_site_fract_x
    _atom_site_fract_y
    _atom_site_fract_z
    _atom_site_occupancy
    Tb1      Tb       0.39379    0.95009    0.82439    1.000
    O1       O        0.65600    0.00310    0.01180    1.000
    O2       O        0.61970    0.93760    0.82760    1.000
    O3       O        0.43120    0.77970    0.90300    1.000
    O4       O        0.50040    0.16920    0.90370    1.000
    O5       O        0.16800    0.79330    0.73630    1.000
    O6       O        0.31750    0.76310    0.65830    1.000
    C1       C        0.70190    0.97410    0.93360    1.000
    C2       C        0.85560    0.98580    0.96660    1.000
    C3       C        0.90750    0.94150    0.88390    1.000
    C4       C        0.94690    0.04340    0.08040    1.000
    H1       H        0.91130    0.07280    0.13460    1.000
    C5       C        0.47030    0.75450    0.99920    1.000
    C6       C        0.48230    0.62170    0.99830    1.000
    C7       C        0.48680    0.54000    0.90000    1.000
    C8       C        0.49680    0.58100    0.09580    1.000
    H2       H        0.49560    0.63530    0.16030    1.000
    C9       C        0.19970    0.72950    0.66450    1.000
    C10      C        0.09760    0.60980    0.58010    1.000
    C11      C        0.13510    0.53080    0.50370    1.000
    C12      C        0.96110    0.57880    0.57610    1.000
    N1       N        0.82770    0.88510    0.77290    1.000
    N2       N        0.27600    0.53200    0.51580    1.000
    N3       N        0.90300    0.65800    0.63800    1.000
    Tb2      Tb       0.60621    0.04991    0.17561    1.000
    O7       O        0.34400    0.99690    0.98820    1.000
    O8       O        0.38030    0.06240    0.17240    1.000
    O9       O        0.56880    0.22030    0.09700    1.000
    O10      O        0.49960    0.83080    0.09630    1.000
    O11      O        0.83200    0.20670    0.26370    1.000
    O12      O        0.68250    0.23690    0.34170    1.000
    C13      C        0.29810    0.02590    0.06640    1.000
    C14      C        0.14440    0.01420    0.03340    1.000
    C15      C        0.09250    0.05850    0.11610    1.000
    C16      C        0.05310    0.95660    0.91960    1.000
    H3       H        0.08870    0.92720    0.86540    1.000
    C17      C        0.52970    0.24550    0.00080    1.000
    C18      C        0.51770    0.37830    0.00170    1.000
    C19      C        0.51320    0.46000    0.10000    1.000
    C20      C        0.50320    0.41900    0.90420    1.000
    H4       H        0.50440    0.36470    0.83970    1.000
    C21      C        0.80030    0.27050    0.33550    1.000
    C22      C        0.90240    0.39020    0.41990    1.000
    C23      C        0.86490    0.46920    0.49630    1.000
    C24      C        0.03890    0.42120    0.42390    1.000
    N4       N        0.17230    0.11490    0.22710    1.000
    N5       N        0.72400    0.46800    0.48420    1.000
    N6       N        0.09700    0.34200    0.36200    1.000
