# CIF file generated by openbabel 3.1.0, see https://openbabel.org
data_I
_chemical_name_common 'image0'
_cell_length_a 28.7135
_cell_length_b 28.7135
_cell_length_c 28.7135
_cell_angle_alpha 90
_cell_angle_beta 90
_cell_angle_gamma 90
_space_group_name_H-M_alt 'P 1'
_space_group_name_Hall 'P 1'
loop_
    _symmetry_equiv_pos_as_xyz
    x,y,z
loop_
    _atom_site_label
    _atom_site_type_symbol
    _atom_site_fract_x
    _atom_site_fract_y
    _atom_site_fract_z
    _atom_site_occupancy
    O1       O        0.26500    0.59200    0.51770    1.000
    O2       O        0.26500    0.09200    0.01770    1.000
    O3       O        0.76500    0.59200    0.01770    1.000
    O4       O        0.76500    0.09200    0.51770    1.000
    O5       O        0.73500    0.40800    0.51770    1.000
    O6       O        0.73500    0.90800    0.01770    1.000
    O7       O        0.23500    0.40800    0.01770    1.000
    O8       O        0.23500    0.90800    0.51770    1.000
    O9       O        0.73500    0.59200    0.48230    1.000
    O10      O        0.73500    0.09200    0.98230    1.000
    O11      O        0.23500    0.59200    0.98230    1.000
    O12      O        0.23500    0.09200    0.48230    1.000
    O13      O        0.26500    0.40800    0.48230    1.000
    O14      O        0.26500    0.90800    0.98230    1.000
    O15      O        0.76500    0.40800    0.98230    1.000
    O16      O        0.76500    0.90800    0.48230    1.000
    O17      O        0.51770    0.26500    0.59200    1.000
    O18      O        0.51770    0.76500    0.09200    1.000
    O19      O        0.01770    0.26500    0.09200    1.000
    O20      O        0.01770    0.76500    0.59200    1.000
    O21      O        0.51770    0.73500    0.40800    1.000
    O22      O        0.51770    0.23500    0.90800    1.000
    O23      O        0.01770    0.73500    0.90800    1.000
    O24      O        0.01770    0.23500    0.40800    1.000
    O25      O        0.48230    0.73500    0.59200    1.000
    O26      O        0.48230    0.23500    0.09200    1.000
    O27      O        0.98230    0.73500    0.09200    1.000
    O28      O        0.98230    0.23500    0.59200    1.000
    O29      O        0.48230    0.26500    0.40800    1.000
    O30      O        0.48230    0.76500    0.90800    1.000
    O31      O        0.98230    0.26500    0.90800    1.000
    O32      O        0.98230    0.76500    0.40800    1.000
    O33      O        0.59200    0.51770    0.26500    1.000
    O34      O        0.59200    0.01770    0.76500    1.000
    O35      O        0.09200    0.51770    0.76500    1.000
    O36      O        0.09200    0.01770    0.26500    1.000
    O37      O        0.40800    0.51770    0.73500    1.000
    O38      O        0.40800    0.01770    0.23500    1.000
    O39      O        0.90800    0.51770    0.23500    1.000
    O40      O        0.90800    0.01770    0.73500    1.000
    O41      O        0.59200    0.48230    0.73500    1.000
    O42      O        0.59200    0.98230    0.23500    1.000
    O43      O        0.09200    0.48230    0.23500    1.000
    O44      O        0.09200    0.98230    0.73500    1.000
    O45      O        0.40800    0.48230    0.26500    1.000
    O46      O        0.40800    0.98230    0.76500    1.000
    O47      O        0.90800    0.48230    0.76500    1.000
    O48      O        0.90800    0.98230    0.26500    1.000
    O49      O        0.59200    0.26500    0.48230    1.000
    O50      O        0.59200    0.76500    0.98230    1.000
    O51      O        0.09200    0.26500    0.98230    1.000
    O52      O        0.09200    0.76500    0.48230    1.000
    O53      O        0.40800    0.73500    0.48230    1.000
    O54      O        0.40800    0.23500    0.98230    1.000
    O55      O        0.90800    0.73500    0.98230    1.000
    O56      O        0.90800    0.23500    0.48230    1.000
    O57      O        0.59200    0.73500    0.51770    1.000
    O58      O        0.59200    0.23500    0.01770    1.000
    O59      O        0.09200    0.73500    0.01770    1.000
    O60      O        0.09200    0.23500    0.51770    1.000
    O61      O        0.40800    0.26500    0.51770    1.000
    O62      O        0.40800    0.76500    0.01770    1.000
    O63      O        0.90800    0.26500    0.01770    1.000
    O64      O        0.90800    0.76500    0.51770    1.000
    O65      O        0.26500    0.51770    0.40800    1.000
    O66      O        0.26500    0.01770    0.90800    1.000
    O67      O        0.76500    0.51770    0.90800    1.000
    O68      O        0.76500    0.01770    0.40800    1.000
    O69      O        0.73500    0.51770    0.59200    1.000
    O70      O        0.73500    0.01770    0.09200    1.000
    O71      O        0.23500    0.51770    0.09200    1.000
    O72      O        0.23500    0.01770    0.59200    1.000
    O73      O        0.73500    0.48230    0.40800    1.000
    O74      O        0.73500    0.98230    0.90800    1.000
    O75      O        0.23500    0.48230    0.90800    1.000
    O76      O        0.23500    0.98230    0.40800    1.000
    O77      O        0.26500    0.48230    0.59200    1.000
    O78      O        0.26500    0.98230    0.09200    1.000
    O79      O        0.76500    0.48230    0.09200    1.000
    O80      O        0.76500    0.98230    0.59200    1.000
    O81      O        0.51770    0.59200    0.73500    1.000
    O82      O        0.51770    0.09200    0.23500    1.000
    O83      O        0.01770    0.59200    0.23500    1.000
    O84      O        0.01770    0.09200    0.73500    1.000
    O85      O        0.51770    0.40800    0.26500    1.000
    O86      O        0.51770    0.90800    0.76500    1.000
    O87      O        0.01770    0.40800    0.76500    1.000
    O88      O        0.01770    0.90800    0.26500    1.000
    O89      O        0.48230    0.59200    0.26500    1.000
    O90      O        0.48230    0.09200    0.76500    1.000
    O91      O        0.98230    0.59200    0.76500    1.000
    O92      O        0.98230    0.09200    0.26500    1.000
    O93      O        0.48230    0.40800    0.73500    1.000
    O94      O        0.48230    0.90800    0.23500    1.000
    O95      O        0.98230    0.40800    0.23500    1.000
    O96      O        0.98230    0.90800    0.73500    1.000
    O97      O        0.73500    0.40800    0.48230    1.000
    O98      O        0.73500    0.90800    0.98230    1.000
    O99      O        0.23500    0.40800    0.98230    1.000
    O100     O        0.23500    0.90800    0.48230    1.000
    O101     O        0.26500    0.59200    0.48230    1.000
    O102     O        0.26500    0.09200    0.98230    1.000
    O103     O        0.76500    0.59200    0.98230    1.000
    O104     O        0.76500    0.09200    0.48230    1.000
    O105     O        0.26500    0.40800    0.51770    1.000
    O106     O        0.26500    0.90800    0.01770    1.000
    O107     O        0.76500    0.40800    0.01770    1.000
    O108     O        0.76500    0.90800    0.51770    1.000
    O109     O        0.73500    0.59200    0.51770    1.000
    O110     O        0.73500    0.09200    0.01770    1.000
    O111     O        0.23500    0.59200    0.01770    1.000
    O112     O        0.23500    0.09200    0.51770    1.000
    O113     O        0.48230    0.73500    0.40800    1.000
    O114     O        0.48230    0.23500    0.90800    1.000
    O115     O        0.98230    0.73500    0.90800    1.000
    O116     O        0.98230    0.23500    0.40800    1.000
    O117     O        0.48230    0.26500    0.59200    1.000
    O118     O        0.48230    0.76500    0.09200    1.000
    O119     O        0.98230    0.26500    0.09200    1.000
    O120     O        0.98230    0.76500    0.59200    1.000
    O121     O        0.51770    0.26500    0.40800    1.000
    O122     O        0.51770    0.76500    0.90800    1.000
    O123     O        0.01770    0.26500    0.90800    1.000
    O124     O        0.01770    0.76500    0.40800    1.000
    O125     O        0.51770    0.73500    0.59200    1.000
    O126     O        0.51770    0.23500    0.09200    1.000
    O127     O        0.01770    0.73500    0.09200    1.000
    O128     O        0.01770    0.23500    0.59200    1.000
    O129     O        0.40800    0.48230    0.73500    1.000
    O130     O        0.40800    0.98230    0.23500    1.000
    O131     O        0.90800    0.48230    0.23500    1.000
    O132     O        0.90800    0.98230    0.73500    1.000
    O133     O        0.59200    0.48230    0.26500    1.000
    O134     O        0.59200    0.98230    0.76500    1.000
    O135     O        0.09200    0.48230    0.76500    1.000
    O136     O        0.09200    0.98230    0.26500    1.000
    O137     O        0.40800    0.51770    0.26500    1.000
    O138     O        0.40800    0.01770    0.76500    1.000
    O139     O        0.90800    0.51770    0.76500    1.000
    O140     O        0.90800    0.01770    0.26500    1.000
    O141     O        0.59200    0.51770    0.73500    1.000
    O142     O        0.59200    0.01770    0.23500    1.000
    O143     O        0.09200    0.51770    0.23500    1.000
    O144     O        0.09200    0.01770    0.73500    1.000
    O145     O        0.40800    0.73500    0.51770    1.000
    O146     O        0.40800    0.23500    0.01770    1.000
    O147     O        0.90800    0.73500    0.01770    1.000
    O148     O        0.90800    0.23500    0.51770    1.000
    O149     O        0.59200    0.26500    0.51770    1.000
    O150     O        0.59200    0.76500    0.01770    1.000
    O151     O        0.09200    0.26500    0.01770    1.000
    O152     O        0.09200    0.76500    0.51770    1.000
    O153     O        0.40800    0.26500    0.48230    1.000
    O154     O        0.40800    0.76500    0.98230    1.000
    O155     O        0.90800    0.26500    0.98230    1.000
    O156     O        0.90800    0.76500    0.48230    1.000
    O157     O        0.59200    0.73500    0.48230    1.000
    O158     O        0.59200    0.23500    0.98230    1.000
    O159     O        0.09200    0.73500    0.98230    1.000
    O160     O        0.09200    0.23500    0.48230    1.000
    O161     O        0.73500    0.48230    0.59200    1.000
    O162     O        0.73500    0.98230    0.09200    1.000
    O163     O        0.23500    0.48230    0.09200    1.000
    O164     O        0.23500    0.98230    0.59200    1.000
    O165     O        0.26500    0.48230    0.40800    1.000
    O166     O        0.26500    0.98230    0.90800    1.000
    O167     O        0.76500    0.48230    0.90800    1.000
    O168     O        0.76500    0.98230    0.40800    1.000
    O169     O        0.26500    0.51770    0.59200    1.000
    O170     O        0.26500    0.01770    0.09200    1.000
    O171     O        0.76500    0.51770    0.09200    1.000
    O172     O        0.76500    0.01770    0.59200    1.000
    O173     O        0.73500    0.51770    0.40800    1.000
    O174     O        0.73500    0.01770    0.90800    1.000
    O175     O        0.23500    0.51770    0.90800    1.000
    O176     O        0.23500    0.01770    0.40800    1.000
    O177     O        0.48230    0.40800    0.26500    1.000
    O178     O        0.48230    0.90800    0.76500    1.000
    O179     O        0.98230    0.40800    0.76500    1.000
    O180     O        0.98230    0.90800    0.26500    1.000
    O181     O        0.48230    0.59200    0.73500    1.000
    O182     O        0.48230    0.09200    0.23500    1.000
    O183     O        0.98230    0.59200    0.23500    1.000
    O184     O        0.98230    0.09200    0.73500    1.000
    O185     O        0.51770    0.40800    0.73500    1.000
    O186     O        0.51770    0.90800    0.23500    1.000
    O187     O        0.01770    0.40800    0.23500    1.000
    O188     O        0.01770    0.90800    0.73500    1.000
    O189     O        0.51770    0.59200    0.26500    1.000
    O190     O        0.51770    0.09200    0.76500    1.000
    O191     O        0.01770    0.59200    0.76500    1.000
    O192     O        0.01770    0.09200    0.26500    1.000
    Co1      Co       0.19516    0.50000    0.50000    1.000
    O193     O        0.27120    0.50000    0.50000    1.000
    Co2      Co       0.19516    0.00000    0.00000    1.000
    O194     O        0.27120    0.00000    0.00000    1.000
    Co3      Co       0.69516    0.50000    0.00000    1.000
    O195     O        0.77120    0.50000    0.00000    1.000
    Co4      Co       0.69516    0.00000    0.50000    1.000
    O196     O        0.77120    0.00000    0.50000    1.000
    Co5      Co       0.80484    0.50000    0.50000    1.000
    O197     O        0.72880    0.50000    0.50000    1.000
    Co6      Co       0.80484    0.00000    0.00000    1.000
    O198     O        0.72880    0.00000    0.00000    1.000
    Co7      Co       0.30484    0.50000    0.00000    1.000
    O199     O        0.22880    0.50000    0.00000    1.000
    Co8      Co       0.30484    0.00000    0.50000    1.000
    O200     O        0.22880    0.00000    0.50000    1.000
    Co9      Co       0.50000    0.19516    0.50000    1.000
    O201     O        0.50000    0.27120    0.50000    1.000
    Co10     Co       0.50000    0.69516    0.00000    1.000
    O202     O        0.50000    0.77120    0.00000    1.000
    Co11     Co       0.00000    0.19516    0.00000    1.000
    O203     O        0.00000    0.27120    0.00000    1.000
    Co12     Co       0.00000    0.69516    0.50000    1.000
    O204     O        0.00000    0.77120    0.50000    1.000
    Co13     Co       0.50000    0.80484    0.50000    1.000
    O205     O        0.50000    0.72880    0.50000    1.000
    Co14     Co       0.50000    0.30484    0.00000    1.000
    O206     O        0.50000    0.22880    0.00000    1.000
    Co15     Co       0.00000    0.80484    0.00000    1.000
    O207     O        0.00000    0.72880    0.00000    1.000
    Co16     Co       0.00000    0.30484    0.50000    1.000
    O208     O        0.00000    0.22880    0.50000    1.000
    Co17     Co       0.50000    0.50000    0.19516    1.000
    O209     O        0.50000    0.50000    0.27120    1.000
    Co18     Co       0.50000    0.00000    0.69516    1.000
    O210     O        0.50000    0.00000    0.77120    1.000
    Co19     Co       0.00000    0.50000    0.69516    1.000
    O211     O        0.00000    0.50000    0.77120    1.000
    Co20     Co       0.00000    0.00000    0.19516    1.000
    O212     O        0.00000    0.00000    0.27120    1.000
    Co21     Co       0.50000    0.50000    0.80484    1.000
    O213     O        0.50000    0.50000    0.72880    1.000
    Co22     Co       0.50000    0.00000    0.30484    1.000
    O214     O        0.50000    0.00000    0.22880    1.000
    Co23     Co       0.00000    0.50000    0.30484    1.000
    O215     O        0.00000    0.50000    0.22880    1.000
    Co24     Co       0.00000    0.00000    0.80484    1.000
    O216     O        0.00000    0.00000    0.72880    1.000
    Co25     Co       0.30753    0.54163    0.54163    1.000
    Co26     Co       0.30753    0.04163    0.04163    1.000
    Co27     Co       0.80753    0.54163    0.04163    1.000
    Co28     Co       0.80753    0.04163    0.54163    1.000
    Co29     Co       0.69247    0.45837    0.54163    1.000
    Co30     Co       0.69247    0.95837    0.04163    1.000
    Co31     Co       0.19247    0.45837    0.04163    1.000
    Co32     Co       0.19247    0.95837    0.54163    1.000
    Co33     Co       0.69247    0.54163    0.45837    1.000
    Co34     Co       0.69247    0.04163    0.95837    1.000
    Co35     Co       0.19247    0.54163    0.95837    1.000
    Co36     Co       0.19247    0.04163    0.45837    1.000
    Co37     Co       0.30753    0.45837    0.45837    1.000
    Co38     Co       0.30753    0.95837    0.95837    1.000
    Co39     Co       0.80753    0.45837    0.95837    1.000
    Co40     Co       0.80753    0.95837    0.45837    1.000
    Co41     Co       0.54163    0.30753    0.54163    1.000
    Co42     Co       0.54163    0.80753    0.04163    1.000
    Co43     Co       0.04163    0.30753    0.04163    1.000
    Co44     Co       0.04163    0.80753    0.54163    1.000
    Co45     Co       0.54163    0.69247    0.45837    1.000
    Co46     Co       0.54163    0.19247    0.95837    1.000
    Co47     Co       0.04163    0.69247    0.95837    1.000
    Co48     Co       0.04163    0.19247    0.45837    1.000
    Co49     Co       0.45837    0.69247    0.54163    1.000
    Co50     Co       0.45837    0.19247    0.04163    1.000
    Co51     Co       0.95837    0.69247    0.04163    1.000
    Co52     Co       0.95837    0.19247    0.54163    1.000
    Co53     Co       0.45837    0.30753    0.45837    1.000
    Co54     Co       0.45837    0.80753    0.95837    1.000
    Co55     Co       0.95837    0.30753    0.95837    1.000
    Co56     Co       0.95837    0.80753    0.45837    1.000
    Co57     Co       0.54163    0.54163    0.30753    1.000
    Co58     Co       0.54163    0.04163    0.80753    1.000
    Co59     Co       0.04163    0.54163    0.80753    1.000
    Co60     Co       0.04163    0.04163    0.30753    1.000
    Co61     Co       0.45837    0.54163    0.69247    1.000
    Co62     Co       0.45837    0.04163    0.19247    1.000
    Co63     Co       0.95837    0.54163    0.19247    1.000
    Co64     Co       0.95837    0.04163    0.69247    1.000
    Co65     Co       0.54163    0.45837    0.69247    1.000
    Co66     Co       0.54163    0.95837    0.19247    1.000
    Co67     Co       0.04163    0.45837    0.19247    1.000
    Co68     Co       0.04163    0.95837    0.69247    1.000
    Co69     Co       0.45837    0.45837    0.30753    1.000
    Co70     Co       0.45837    0.95837    0.80753    1.000
    Co71     Co       0.95837    0.45837    0.80753    1.000
    Co72     Co       0.95837    0.95837    0.30753    1.000
    Co73     Co       0.54163    0.30753    0.45837    1.000
    Co74     Co       0.54163    0.80753    0.95837    1.000
    Co75     Co       0.04163    0.30753    0.95837    1.000
    Co76     Co       0.04163    0.80753    0.45837    1.000
    Co77     Co       0.45837    0.69247    0.45837    1.000
    Co78     Co       0.45837    0.19247    0.95837    1.000
    Co79     Co       0.95837    0.69247    0.95837    1.000
    Co80     Co       0.95837    0.19247    0.45837    1.000
    Co81     Co       0.54163    0.69247    0.54163    1.000
    Co82     Co       0.54163    0.19247    0.04163    1.000
    Co83     Co       0.04163    0.69247    0.04163    1.000
    Co84     Co       0.04163    0.19247    0.54163    1.000
    Co85     Co       0.45837    0.30753    0.54163    1.000
    Co86     Co       0.45837    0.80753    0.04163    1.000
    Co87     Co       0.95837    0.30753    0.04163    1.000
    Co88     Co       0.95837    0.80753    0.54163    1.000
    Co89     Co       0.30753    0.54163    0.45837    1.000
    Co90     Co       0.30753    0.04163    0.95837    1.000
    Co91     Co       0.80753    0.54163    0.95837    1.000
    Co92     Co       0.80753    0.04163    0.45837    1.000
    Co93     Co       0.69247    0.54163    0.54163    1.000
    Co94     Co       0.69247    0.04163    0.04163    1.000
    Co95     Co       0.19247    0.54163    0.04163    1.000
    Co96     Co       0.19247    0.04163    0.54163    1.000
    Co97     Co       0.69247    0.45837    0.45837    1.000
    Co98     Co       0.69247    0.95837    0.95837    1.000
    Co99     Co       0.19247    0.45837    0.95837    1.000
    Co100    Co       0.19247    0.95837    0.45837    1.000
    Co101    Co       0.30753    0.45837    0.54163    1.000
    Co102    Co       0.30753    0.95837    0.04163    1.000
    Co103    Co       0.80753    0.45837    0.04163    1.000
    Co104    Co       0.80753    0.95837    0.54163    1.000
    Co105    Co       0.54163    0.54163    0.69247    1.000
    Co106    Co       0.54163    0.04163    0.19247    1.000
    Co107    Co       0.04163    0.54163    0.19247    1.000
    Co108    Co       0.04163    0.04163    0.69247    1.000
    Co109    Co       0.54163    0.45837    0.30753    1.000
    Co110    Co       0.54163    0.95837    0.80753    1.000
    Co111    Co       0.04163    0.45837    0.80753    1.000
    Co112    Co       0.04163    0.95837    0.30753    1.000
    Co113    Co       0.45837    0.54163    0.30753    1.000
    Co114    Co       0.45837    0.04163    0.80753    1.000
    Co115    Co       0.95837    0.54163    0.80753    1.000
    Co116    Co       0.95837    0.04163    0.30753    1.000
    Co117    Co       0.45837    0.45837    0.69247    1.000
    Co118    Co       0.45837    0.95837    0.19247    1.000
    Co119    Co       0.95837    0.45837    0.19247    1.000
    Co120    Co       0.95837    0.95837    0.69247    1.000
    O217     O        0.19190    0.57030    0.50000    1.000
    C1       C        0.21020    0.65150    0.50000    1.000
    C2       C        0.24310    0.68510    0.50000    1.000
    H1       H        0.27510    0.67670    0.50000    1.000
    C3       C        0.22440    0.60030    0.50000    1.000
    O218     O        0.35410    0.56380    0.50000    1.000
    O219     O        0.19190    0.07030    0.00000    1.000
    C4       C        0.21020    0.15150    0.00000    1.000
    C5       C        0.24310    0.18510    0.00000    1.000
    H2       H        0.27510    0.17670    0.00000    1.000
    C6       C        0.22440    0.10030    0.00000    1.000
    O220     O        0.35410    0.06380    0.00000    1.000
    O221     O        0.69190    0.57030    0.00000    1.000
    C7       C        0.71020    0.65150    0.00000    1.000
    C8       C        0.74310    0.68510    0.00000    1.000
    H3       H        0.77510    0.67670    0.00000    1.000
    C9       C        0.72440    0.60030    0.00000    1.000
    O222     O        0.85410    0.56380    0.00000    1.000
    O223     O        0.69190    0.07030    0.50000    1.000
    C10      C        0.71020    0.15150    0.50000    1.000
    C11      C        0.74310    0.18510    0.50000    1.000
    H4       H        0.77510    0.17670    0.50000    1.000
    C12      C        0.72440    0.10030    0.50000    1.000
    O224     O        0.85410    0.06380    0.50000    1.000
    O225     O        0.80810    0.42970    0.50000    1.000
    C13      C        0.78980    0.34850    0.50000    1.000
    C14      C        0.75690    0.31490    0.50000    1.000
    H5       H        0.72490    0.32330    0.50000    1.000
    C15      C        0.77560    0.39970    0.50000    1.000
    O226     O        0.64590    0.43620    0.50000    1.000
    O227     O        0.80810    0.92970    0.00000    1.000
    C16      C        0.78980    0.84850    0.00000    1.000
    C17      C        0.75690    0.81490    0.00000    1.000
    H6       H        0.72490    0.82330    0.00000    1.000
    C18      C        0.77560    0.89970    0.00000    1.000
    O228     O        0.64590    0.93620    0.00000    1.000
    O229     O        0.30810    0.42970    0.00000    1.000
    C19      C        0.28980    0.34850    0.00000    1.000
    C20      C        0.25690    0.31490    0.00000    1.000
    H7       H        0.22490    0.32330    0.00000    1.000
    C21      C        0.27560    0.39970    0.00000    1.000
    O230     O        0.14590    0.43620    0.00000    1.000
    O231     O        0.30810    0.92970    0.50000    1.000
    C22      C        0.28980    0.84850    0.50000    1.000
    C23      C        0.25690    0.81490    0.50000    1.000
    H8       H        0.22490    0.82330    0.50000    1.000
    C24      C        0.27560    0.89970    0.50000    1.000
    O232     O        0.14590    0.93620    0.50000    1.000
    O233     O        0.80810    0.57030    0.50000    1.000
    C25      C        0.78980    0.65150    0.50000    1.000
    C26      C        0.75690    0.68510    0.50000    1.000
    H9       H        0.72490    0.67670    0.50000    1.000
    C27      C        0.77560    0.60030    0.50000    1.000
    O234     O        0.64590    0.56380    0.50000    1.000
    O235     O        0.80810    0.07030    0.00000    1.000
    C28      C        0.78980    0.15150    0.00000    1.000
    C29      C        0.75690    0.18510    0.00000    1.000
    H10      H        0.72490    0.17670    0.00000    1.000
    C30      C        0.77560    0.10030    0.00000    1.000
    O236     O        0.64590    0.06380    0.00000    1.000
    O237     O        0.30810    0.57030    0.00000    1.000
    C31      C        0.28980    0.65150    0.00000    1.000
    C32      C        0.25690    0.68510    0.00000    1.000
    H11      H        0.22490    0.67670    0.00000    1.000
    C33      C        0.27560    0.60030    0.00000    1.000
    O238     O        0.14590    0.56380    0.00000    1.000
    O239     O        0.30810    0.07030    0.50000    1.000
    C34      C        0.28980    0.15150    0.50000    1.000
    C35      C        0.25690    0.18510    0.50000    1.000
    H12      H        0.22490    0.17670    0.50000    1.000
    C36      C        0.27560    0.10030    0.50000    1.000
    O240     O        0.14590    0.06380    0.50000    1.000
    O241     O        0.19190    0.42970    0.50000    1.000
    C37      C        0.21020    0.34850    0.50000    1.000
    C38      C        0.24310    0.31490    0.50000    1.000
    H13      H        0.27510    0.32330    0.50000    1.000
    C39      C        0.22440    0.39970    0.50000    1.000
    O242     O        0.35410    0.43620    0.50000    1.000
    O243     O        0.19190    0.92970    0.00000    1.000
    C40      C        0.21020    0.84850    0.00000    1.000
    C41      C        0.24310    0.81490    0.00000    1.000
    H14      H        0.27510    0.82330    0.00000    1.000
    C42      C        0.22440    0.89970    0.00000    1.000
    O244     O        0.35410    0.93620    0.00000    1.000
    O245     O        0.69190    0.42970    0.00000    1.000
    C43      C        0.71020    0.34850    0.00000    1.000
    C44      C        0.74310    0.31490    0.00000    1.000
    H15      H        0.77510    0.32330    0.00000    1.000
    C45      C        0.72440    0.39970    0.00000    1.000
    O246     O        0.85410    0.43620    0.00000    1.000
    O247     O        0.69190    0.92970    0.50000    1.000
    C46      C        0.71020    0.84850    0.50000    1.000
    C47      C        0.74310    0.81490    0.50000    1.000
    H16      H        0.77510    0.82330    0.50000    1.000
    C48      C        0.72440    0.89970    0.50000    1.000
    O248     O        0.85410    0.93620    0.50000    1.000
    O249     O        0.50000    0.19190    0.57030    1.000
    C49      C        0.50000    0.21020    0.65150    1.000
    C50      C        0.50000    0.24310    0.68510    1.000
    H17      H        0.50000    0.27510    0.67670    1.000
    C51      C        0.50000    0.22440    0.60030    1.000
    O250     O        0.50000    0.35410    0.56380    1.000
    O251     O        0.50000    0.69190    0.07030    1.000
    C52      C        0.50000    0.71020    0.15150    1.000
    C53      C        0.50000    0.74310    0.18510    1.000
    H18      H        0.50000    0.77510    0.17670    1.000
    C54      C        0.50000    0.72440    0.10030    1.000
    O252     O        0.50000    0.85410    0.06380    1.000
    O253     O        0.00000    0.19190    0.07030    1.000
    C55      C        0.00000    0.21020    0.15150    1.000
    C56      C        0.00000    0.24310    0.18510    1.000
    H19      H        0.00000    0.27510    0.17670    1.000
    C57      C        0.00000    0.22440    0.10030    1.000
    O254     O        0.00000    0.35410    0.06380    1.000
    O255     O        0.00000    0.69190    0.57030    1.000
    C58      C        0.00000    0.71020    0.65150    1.000
    C59      C        0.00000    0.74310    0.68510    1.000
    H20      H        0.00000    0.77510    0.67670    1.000
    C60      C        0.00000    0.72440    0.60030    1.000
    O256     O        0.00000    0.85410    0.56380    1.000
    O257     O        0.50000    0.80810    0.42970    1.000
    C61      C        0.50000    0.78980    0.34850    1.000
    C62      C        0.50000    0.75690    0.31490    1.000
    H21      H        0.50000    0.72490    0.32330    1.000
    C63      C        0.50000    0.77560    0.39970    1.000
    O258     O        0.50000    0.64590    0.43620    1.000
    O259     O        0.50000    0.30810    0.92970    1.000
    C64      C        0.50000    0.28980    0.84850    1.000
    C65      C        0.50000    0.25690    0.81490    1.000
    H22      H        0.50000    0.22490    0.82330    1.000
    C66      C        0.50000    0.27560    0.89970    1.000
    O260     O        0.50000    0.14590    0.93620    1.000
    O261     O        0.00000    0.80810    0.92970    1.000
    C67      C        0.00000    0.78980    0.84850    1.000
    C68      C        0.00000    0.75690    0.81490    1.000
    H23      H        0.00000    0.72490    0.82330    1.000
    C69      C        0.00000    0.77560    0.89970    1.000
    O262     O        0.00000    0.64590    0.93620    1.000
    O263     O        0.00000    0.30810    0.42970    1.000
    C70      C        0.00000    0.28980    0.34850    1.000
    C71      C        0.00000    0.25690    0.31490    1.000
    H24      H        0.00000    0.22490    0.32330    1.000
    C72      C        0.00000    0.27560    0.39970    1.000
    O264     O        0.00000    0.14590    0.43620    1.000
    O265     O        0.50000    0.80810    0.57030    1.000
    C73      C        0.50000    0.78980    0.65150    1.000
    C74      C        0.50000    0.75690    0.68510    1.000
    H25      H        0.50000    0.72490    0.67670    1.000
    C75      C        0.50000    0.77560    0.60030    1.000
    O266     O        0.50000    0.64590    0.56380    1.000
    O267     O        0.50000    0.30810    0.07030    1.000
    C76      C        0.50000    0.28980    0.15150    1.000
    C77      C        0.50000    0.25690    0.18510    1.000
    H26      H        0.50000    0.22490    0.17670    1.000
    C78      C        0.50000    0.27560    0.10030    1.000
    O268     O        0.50000    0.14590    0.06380    1.000
    O269     O        0.00000    0.80810    0.07030    1.000
    C79      C        0.00000    0.78980    0.15150    1.000
    C80      C        0.00000    0.75690    0.18510    1.000
    H27      H        0.00000    0.72490    0.17670    1.000
    C81      C        0.00000    0.77560    0.10030    1.000
    O270     O        0.00000    0.64590    0.06380    1.000
    O271     O        0.00000    0.30810    0.57030    1.000
    C82      C        0.00000    0.28980    0.65150    1.000
    C83      C        0.00000    0.25690    0.68510    1.000
    H28      H        0.00000    0.22490    0.67670    1.000
    C84      C        0.00000    0.27560    0.60030    1.000
    O272     O        0.00000    0.14590    0.56380    1.000
    O273     O        0.50000    0.19190    0.42970    1.000
    C85      C        0.50000    0.21020    0.34850    1.000
    C86      C        0.50000    0.24310    0.31490    1.000
    H29      H        0.50000    0.27510    0.32330    1.000
    C87      C        0.50000    0.22440    0.39970    1.000
    O274     O        0.50000    0.35410    0.43620    1.000
    O275     O        0.50000    0.69190    0.92970    1.000
    C88      C        0.50000    0.71020    0.84850    1.000
    C89      C        0.50000    0.74310    0.81490    1.000
    H30      H        0.50000    0.77510    0.82330    1.000
    C90      C        0.50000    0.72440    0.89970    1.000
    O276     O        0.50000    0.85410    0.93620    1.000
    O277     O        0.00000    0.19190    0.92970    1.000
    C91      C        0.00000    0.21020    0.84850    1.000
    C92      C        0.00000    0.24310    0.81490    1.000
    H31      H        0.00000    0.27510    0.82330    1.000
    C93      C        0.00000    0.22440    0.89970    1.000
    O278     O        0.00000    0.35410    0.93620    1.000
    O279     O        0.00000    0.69190    0.42970    1.000
    C94      C        0.00000    0.71020    0.34850    1.000
    C95      C        0.00000    0.74310    0.31490    1.000
    H32      H        0.00000    0.77510    0.32330    1.000
    C96      C        0.00000    0.72440    0.39970    1.000
    O280     O        0.00000    0.85410    0.43620    1.000
    O281     O        0.57030    0.50000    0.19190    1.000
    C97      C        0.65150    0.50000    0.21020    1.000
    C98      C        0.68510    0.50000    0.24310    1.000
    H33      H        0.67670    0.50000    0.27510    1.000
    C99      C        0.60030    0.50000    0.22440    1.000
    O282     O        0.56380    0.50000    0.35410    1.000
    O283     O        0.57030    0.00000    0.69190    1.000
    C100     C        0.65150    0.00000    0.71020    1.000
    C101     C        0.68510    0.00000    0.74310    1.000
    H34      H        0.67670    0.00000    0.77510    1.000
    C102     C        0.60030    0.00000    0.72440    1.000
    O284     O        0.56380    0.00000    0.85410    1.000
    O285     O        0.07030    0.50000    0.69190    1.000
    C103     C        0.15150    0.50000    0.71020    1.000
    C104     C        0.18510    0.50000    0.74310    1.000
    H35      H        0.17670    0.50000    0.77510    1.000
    C105     C        0.10030    0.50000    0.72440    1.000
    O286     O        0.06380    0.50000    0.85410    1.000
    O287     O        0.07030    0.00000    0.19190    1.000
    C106     C        0.15150    0.00000    0.21020    1.000
    C107     C        0.18510    0.00000    0.24310    1.000
    H36      H        0.17670    0.00000    0.27510    1.000
    C108     C        0.10030    0.00000    0.22440    1.000
    O288     O        0.06380    0.00000    0.35410    1.000
    O289     O        0.42970    0.50000    0.80810    1.000
    C109     C        0.34850    0.50000    0.78980    1.000
    C110     C        0.31490    0.50000    0.75690    1.000
    H37      H        0.32330    0.50000    0.72490    1.000
    C111     C        0.39970    0.50000    0.77560    1.000
    O290     O        0.43620    0.50000    0.64590    1.000
    O291     O        0.42970    0.00000    0.30810    1.000
    C112     C        0.34850    0.00000    0.28980    1.000
    C113     C        0.31490    0.00000    0.25690    1.000
    H38      H        0.32330    0.00000    0.22490    1.000
    C114     C        0.39970    0.00000    0.27560    1.000
    O292     O        0.43620    0.00000    0.14590    1.000
    O293     O        0.92970    0.50000    0.30810    1.000
    C115     C        0.84850    0.50000    0.28980    1.000
    C116     C        0.81490    0.50000    0.25690    1.000
    H39      H        0.82330    0.50000    0.22490    1.000
    C117     C        0.89970    0.50000    0.27560    1.000
    O294     O        0.93620    0.50000    0.14590    1.000
    O295     O        0.92970    0.00000    0.80810    1.000
    C118     C        0.84850    0.00000    0.78980    1.000
    C119     C        0.81490    0.00000    0.75690    1.000
    H40      H        0.82330    0.00000    0.72490    1.000
    C120     C        0.89970    0.00000    0.77560    1.000
    O296     O        0.93620    0.00000    0.64590    1.000
    O297     O        0.57030    0.50000    0.80810    1.000
    C121     C        0.65150    0.50000    0.78980    1.000
    C122     C        0.68510    0.50000    0.75690    1.000
    H41      H        0.67670    0.50000    0.72490    1.000
    C123     C        0.60030    0.50000    0.77560    1.000
    O298     O        0.56380    0.50000    0.64590    1.000
    O299     O        0.57030    0.00000    0.30810    1.000
    C124     C        0.65150    0.00000    0.28980    1.000
    C125     C        0.68510    0.00000    0.25690    1.000
    H42      H        0.67670    0.00000    0.22490    1.000
    C126     C        0.60030    0.00000    0.27560    1.000
    O300     O        0.56380    0.00000    0.14590    1.000
    O301     O        0.07030    0.50000    0.30810    1.000
    C127     C        0.15150    0.50000    0.28980    1.000
    C128     C        0.18510    0.50000    0.25690    1.000
    H43      H        0.17670    0.50000    0.22490    1.000
    C129     C        0.10030    0.50000    0.27560    1.000
    O302     O        0.06380    0.50000    0.14590    1.000
    O303     O        0.07030    0.00000    0.80810    1.000
    C130     C        0.15150    0.00000    0.78980    1.000
    C131     C        0.18510    0.00000    0.75690    1.000
    H44      H        0.17670    0.00000    0.72490    1.000
    C132     C        0.10030    0.00000    0.77560    1.000
    O304     O        0.06380    0.00000    0.64590    1.000
    O305     O        0.42970    0.50000    0.19190    1.000
    C133     C        0.34850    0.50000    0.21020    1.000
    C134     C        0.31490    0.50000    0.24310    1.000
    H45      H        0.32330    0.50000    0.27510    1.000
    C135     C        0.39970    0.50000    0.22440    1.000
    O306     O        0.43620    0.50000    0.35410    1.000
    O307     O        0.42970    0.00000    0.69190    1.000
    C136     C        0.34850    0.00000    0.71020    1.000
    C137     C        0.31490    0.00000    0.74310    1.000
    H46      H        0.32330    0.00000    0.77510    1.000
    C138     C        0.39970    0.00000    0.72440    1.000
    O308     O        0.43620    0.00000    0.85410    1.000
    O309     O        0.92970    0.50000    0.69190    1.000
    C139     C        0.84850    0.50000    0.71020    1.000
    C140     C        0.81490    0.50000    0.74310    1.000
    H47      H        0.82330    0.50000    0.77510    1.000
    C141     C        0.89970    0.50000    0.72440    1.000
    O310     O        0.93620    0.50000    0.85410    1.000
    O311     O        0.92970    0.00000    0.19190    1.000
    C142     C        0.84850    0.00000    0.21020    1.000
    C143     C        0.81490    0.00000    0.24310    1.000
    H48      H        0.82330    0.00000    0.27510    1.000
    C144     C        0.89970    0.00000    0.22440    1.000
    O312     O        0.93620    0.00000    0.35410    1.000
    O313     O        0.57030    0.19190    0.50000    1.000
    C145     C        0.65150    0.21020    0.50000    1.000
    C146     C        0.68510    0.24310    0.50000    1.000
    H49      H        0.67670    0.27510    0.50000    1.000
    C147     C        0.60030    0.22440    0.50000    1.000
    O314     O        0.56380    0.35410    0.50000    1.000
    O315     O        0.57030    0.69190    0.00000    1.000
    C148     C        0.65150    0.71020    0.00000    1.000
    C149     C        0.68510    0.74310    0.00000    1.000
    H50      H        0.67670    0.77510    0.00000    1.000
    C150     C        0.60030    0.72440    0.00000    1.000
    O316     O        0.56380    0.85410    0.00000    1.000
    O317     O        0.07030    0.19190    0.00000    1.000
    C151     C        0.15150    0.21020    0.00000    1.000
    C152     C        0.18510    0.24310    0.00000    1.000
    H51      H        0.17670    0.27510    0.00000    1.000
    C153     C        0.10030    0.22440    0.00000    1.000
    O318     O        0.06380    0.35410    0.00000    1.000
    O319     O        0.07030    0.69190    0.50000    1.000
    C154     C        0.15150    0.71020    0.50000    1.000
    C155     C        0.18510    0.74310    0.50000    1.000
    H52      H        0.17670    0.77510    0.50000    1.000
    C156     C        0.10030    0.72440    0.50000    1.000
    O320     O        0.06380    0.85410    0.50000    1.000
    O321     O        0.42970    0.80810    0.50000    1.000
    C157     C        0.34850    0.78980    0.50000    1.000
    C158     C        0.31490    0.75690    0.50000    1.000
    H53      H        0.32330    0.72490    0.50000    1.000
    C159     C        0.39970    0.77560    0.50000    1.000
    O322     O        0.43620    0.64590    0.50000    1.000
    O323     O        0.42970    0.30810    0.00000    1.000
    C160     C        0.34850    0.28980    0.00000    1.000
    C161     C        0.31490    0.25690    0.00000    1.000
    H54      H        0.32330    0.22490    0.00000    1.000
    C162     C        0.39970    0.27560    0.00000    1.000
    O324     O        0.43620    0.14590    0.00000    1.000
    O325     O        0.92970    0.80810    0.00000    1.000
    C163     C        0.84850    0.78980    0.00000    1.000
    C164     C        0.81490    0.75690    0.00000    1.000
    H55      H        0.82330    0.72490    0.00000    1.000
    C165     C        0.89970    0.77560    0.00000    1.000
    O326     O        0.93620    0.64590    0.00000    1.000
    O327     O        0.92970    0.30810    0.50000    1.000
    C166     C        0.84850    0.28980    0.50000    1.000
    C167     C        0.81490    0.25690    0.50000    1.000
    H56      H        0.82330    0.22490    0.50000    1.000
    C168     C        0.89970    0.27560    0.50000    1.000
    O328     O        0.93620    0.14590    0.50000    1.000
    O329     O        0.57030    0.80810    0.50000    1.000
    C169     C        0.65150    0.78980    0.50000    1.000
    C170     C        0.68510    0.75690    0.50000    1.000
    H57      H        0.67670    0.72490    0.50000    1.000
    C171     C        0.60030    0.77560    0.50000    1.000
    O330     O        0.56380    0.64590    0.50000    1.000
    O331     O        0.57030    0.30810    0.00000    1.000
    C172     C        0.65150    0.28980    0.00000    1.000
    C173     C        0.68510    0.25690    0.00000    1.000
    H58      H        0.67670    0.22490    0.00000    1.000
    C174     C        0.60030    0.27560    0.00000    1.000
    O332     O        0.56380    0.14590    0.00000    1.000
    O333     O        0.07030    0.80810    0.00000    1.000
    C175     C        0.15150    0.78980    0.00000    1.000
    C176     C        0.18510    0.75690    0.00000    1.000
    H59      H        0.17670    0.72490    0.00000    1.000
    C177     C        0.10030    0.77560    0.00000    1.000
    O334     O        0.06380    0.64590    0.00000    1.000
    O335     O        0.07030    0.30810    0.50000    1.000
    C178     C        0.15150    0.28980    0.50000    1.000
    C179     C        0.18510    0.25690    0.50000    1.000
    H60      H        0.17670    0.22490    0.50000    1.000
    C180     C        0.10030    0.27560    0.50000    1.000
    O336     O        0.06380    0.14590    0.50000    1.000
    O337     O        0.42970    0.19190    0.50000    1.000
    C181     C        0.34850    0.21020    0.50000    1.000
    C182     C        0.31490    0.24310    0.50000    1.000
    H61      H        0.32330    0.27510    0.50000    1.000
    C183     C        0.39970    0.22440    0.50000    1.000
    O338     O        0.43620    0.35410    0.50000    1.000
    O339     O        0.42970    0.69190    0.00000    1.000
    C184     C        0.34850    0.71020    0.00000    1.000
    C185     C        0.31490    0.74310    0.00000    1.000
    H62      H        0.32330    0.77510    0.00000    1.000
    C186     C        0.39970    0.72440    0.00000    1.000
    O340     O        0.43620    0.85410    0.00000    1.000
    O341     O        0.92970    0.19190    0.00000    1.000
    C187     C        0.84850    0.21020    0.00000    1.000
    C188     C        0.81490    0.24310    0.00000    1.000
    H63      H        0.82330    0.27510    0.00000    1.000
    C189     C        0.89970    0.22440    0.00000    1.000
    O342     O        0.93620    0.35410    0.00000    1.000
    O343     O        0.92970    0.69190    0.50000    1.000
    C190     C        0.84850    0.71020    0.50000    1.000
    C191     C        0.81490    0.74310    0.50000    1.000
    H64      H        0.82330    0.77510    0.50000    1.000
    C192     C        0.89970    0.72440    0.50000    1.000
    O344     O        0.93620    0.85410    0.50000    1.000
    O345     O        0.19190    0.50000    0.42970    1.000
    C193     C        0.21020    0.50000    0.34850    1.000
    C194     C        0.24310    0.50000    0.31490    1.000
    H65      H        0.27510    0.50000    0.32330    1.000
    C195     C        0.22440    0.50000    0.39970    1.000
    O346     O        0.35410    0.50000    0.43620    1.000
    O347     O        0.19190    0.00000    0.92970    1.000
    C196     C        0.21020    0.00000    0.84850    1.000
    C197     C        0.24310    0.00000    0.81490    1.000
    H66      H        0.27510    0.00000    0.82330    1.000
    C198     C        0.22440    0.00000    0.89970    1.000
    O348     O        0.35410    0.00000    0.93620    1.000
    O349     O        0.69190    0.50000    0.92970    1.000
    C199     C        0.71020    0.50000    0.84850    1.000
    C200     C        0.74310    0.50000    0.81490    1.000
    H67      H        0.77510    0.50000    0.82330    1.000
    C201     C        0.72440    0.50000    0.89970    1.000
    O350     O        0.85410    0.50000    0.93620    1.000
    O351     O        0.69190    0.00000    0.42970    1.000
    C202     C        0.71020    0.00000    0.34850    1.000
    C203     C        0.74310    0.00000    0.31490    1.000
    H68      H        0.77510    0.00000    0.32330    1.000
    C204     C        0.72440    0.00000    0.39970    1.000
    O352     O        0.85410    0.00000    0.43620    1.000
    O353     O        0.80810    0.50000    0.57030    1.000
    C205     C        0.78980    0.50000    0.65150    1.000
    C206     C        0.75690    0.50000    0.68510    1.000
    H69      H        0.72490    0.50000    0.67670    1.000
    C207     C        0.77560    0.50000    0.60030    1.000
    O354     O        0.64590    0.50000    0.56380    1.000
    O355     O        0.80810    0.00000    0.07030    1.000
    C208     C        0.78980    0.00000    0.15150    1.000
    C209     C        0.75690    0.00000    0.18510    1.000
    H70      H        0.72490    0.00000    0.17670    1.000
    C210     C        0.77560    0.00000    0.10030    1.000
    O356     O        0.64590    0.00000    0.06380    1.000
    O357     O        0.30810    0.50000    0.07030    1.000
    C211     C        0.28980    0.50000    0.15150    1.000
    C212     C        0.25690    0.50000    0.18510    1.000
    H71      H        0.22490    0.50000    0.17670    1.000
    C213     C        0.27560    0.50000    0.10030    1.000
    O358     O        0.14590    0.50000    0.06380    1.000
    O359     O        0.30810    0.00000    0.57030    1.000
    C214     C        0.28980    0.00000    0.65150    1.000
    C215     C        0.25690    0.00000    0.68510    1.000
    H72      H        0.22490    0.00000    0.67670    1.000
    C216     C        0.27560    0.00000    0.60030    1.000
    O360     O        0.14590    0.00000    0.56380    1.000
    O361     O        0.80810    0.50000    0.42970    1.000
    C217     C        0.78980    0.50000    0.34850    1.000
    C218     C        0.75690    0.50000    0.31490    1.000
    H73      H        0.72490    0.50000    0.32330    1.000
    C219     C        0.77560    0.50000    0.39970    1.000
    O362     O        0.64590    0.50000    0.43620    1.000
    O363     O        0.80810    0.00000    0.92970    1.000
    C220     C        0.78980    0.00000    0.84850    1.000
    C221     C        0.75690    0.00000    0.81490    1.000
    H74      H        0.72490    0.00000    0.82330    1.000
    C222     C        0.77560    0.00000    0.89970    1.000
    O364     O        0.64590    0.00000    0.93620    1.000
    O365     O        0.30810    0.50000    0.92970    1.000
    C223     C        0.28980    0.50000    0.84850    1.000
    C224     C        0.25690    0.50000    0.81490    1.000
    H75      H        0.22490    0.50000    0.82330    1.000
    C225     C        0.27560    0.50000    0.89970    1.000
    O366     O        0.14590    0.50000    0.93620    1.000
    O367     O        0.30810    0.00000    0.42970    1.000
    C226     C        0.28980    0.00000    0.34850    1.000
    C227     C        0.25690    0.00000    0.31490    1.000
    H76      H        0.22490    0.00000    0.32330    1.000
    C228     C        0.27560    0.00000    0.39970    1.000
    O368     O        0.14590    0.00000    0.43620    1.000
    O369     O        0.19190    0.50000    0.57030    1.000
    C229     C        0.21020    0.50000    0.65150    1.000
    C230     C        0.24310    0.50000    0.68510    1.000
    H77      H        0.27510    0.50000    0.67670    1.000
    C231     C        0.22440    0.50000    0.60030    1.000
    O370     O        0.35410    0.50000    0.56380    1.000
    O371     O        0.19190    0.00000    0.07030    1.000
    C232     C        0.21020    0.00000    0.15150    1.000
    C233     C        0.24310    0.00000    0.18510    1.000
    H78      H        0.27510    0.00000    0.17670    1.000
    C234     C        0.22440    0.00000    0.10030    1.000
    O372     O        0.35410    0.00000    0.06380    1.000
    O373     O        0.69190    0.50000    0.07030    1.000
    C235     C        0.71020    0.50000    0.15150    1.000
    C236     C        0.74310    0.50000    0.18510    1.000
    H79      H        0.77510    0.50000    0.17670    1.000
    C237     C        0.72440    0.50000    0.10030    1.000
    O374     O        0.85410    0.50000    0.06380    1.000
    O375     O        0.69190    0.00000    0.57030    1.000
    C238     C        0.71020    0.00000    0.65150    1.000
    C239     C        0.74310    0.00000    0.68510    1.000
    H80      H        0.77510    0.00000    0.67670    1.000
    C240     C        0.72440    0.00000    0.60030    1.000
    O376     O        0.85410    0.00000    0.56380    1.000
    O377     O        0.50000    0.57030    0.80810    1.000
    C241     C        0.50000    0.65150    0.78980    1.000
    C242     C        0.50000    0.68510    0.75690    1.000
    H81      H        0.50000    0.67670    0.72490    1.000
    C243     C        0.50000    0.60030    0.77560    1.000
    O378     O        0.50000    0.56380    0.64590    1.000
    O379     O        0.50000    0.07030    0.30810    1.000
    C244     C        0.50000    0.15150    0.28980    1.000
    C245     C        0.50000    0.18510    0.25690    1.000
    H82      H        0.50000    0.17670    0.22490    1.000
    C246     C        0.50000    0.10030    0.27560    1.000
    O380     O        0.50000    0.06380    0.14590    1.000
    O381     O        0.00000    0.57030    0.30810    1.000
    C247     C        0.00000    0.65150    0.28980    1.000
    C248     C        0.00000    0.68510    0.25690    1.000
    H83      H        0.00000    0.67670    0.22490    1.000
    C249     C        0.00000    0.60030    0.27560    1.000
    O382     O        0.00000    0.56380    0.14590    1.000
    O383     O        0.00000    0.07030    0.80810    1.000
    C250     C        0.00000    0.15150    0.78980    1.000
    C251     C        0.00000    0.18510    0.75690    1.000
    H84      H        0.00000    0.17670    0.72490    1.000
    C252     C        0.00000    0.10030    0.77560    1.000
    O384     O        0.00000    0.06380    0.64590    1.000
    O385     O        0.50000    0.42970    0.19190    1.000
    C253     C        0.50000    0.34850    0.21020    1.000
    C254     C        0.50000    0.31490    0.24310    1.000
    H85      H        0.50000    0.32330    0.27510    1.000
    C255     C        0.50000    0.39970    0.22440    1.000
    O386     O        0.50000    0.43620    0.35410    1.000
    O387     O        0.50000    0.92970    0.69190    1.000
    C256     C        0.50000    0.84850    0.71020    1.000
    C257     C        0.50000    0.81490    0.74310    1.000
    H86      H        0.50000    0.82330    0.77510    1.000
    C258     C        0.50000    0.89970    0.72440    1.000
    O388     O        0.50000    0.93620    0.85410    1.000
    O389     O        0.00000    0.42970    0.69190    1.000
    C259     C        0.00000    0.34850    0.71020    1.000
    C260     C        0.00000    0.31490    0.74310    1.000
    H87      H        0.00000    0.32330    0.77510    1.000
    C261     C        0.00000    0.39970    0.72440    1.000
    O390     O        0.00000    0.43620    0.85410    1.000
    O391     O        0.00000    0.92970    0.19190    1.000
    C262     C        0.00000    0.84850    0.21020    1.000
    C263     C        0.00000    0.81490    0.24310    1.000
    H88      H        0.00000    0.82330    0.27510    1.000
    C264     C        0.00000    0.89970    0.22440    1.000
    O392     O        0.00000    0.93620    0.35410    1.000
    O393     O        0.50000    0.57030    0.19190    1.000
    C265     C        0.50000    0.65150    0.21020    1.000
    C266     C        0.50000    0.68510    0.24310    1.000
    H89      H        0.50000    0.67670    0.27510    1.000
    C267     C        0.50000    0.60030    0.22440    1.000
    O394     O        0.50000    0.56380    0.35410    1.000
    O395     O        0.50000    0.07030    0.69190    1.000
    C268     C        0.50000    0.15150    0.71020    1.000
    C269     C        0.50000    0.18510    0.74310    1.000
    H90      H        0.50000    0.17670    0.77510    1.000
    C270     C        0.50000    0.10030    0.72440    1.000
    O396     O        0.50000    0.06380    0.85410    1.000
    O397     O        0.00000    0.57030    0.69190    1.000
    C271     C        0.00000    0.65150    0.71020    1.000
    C272     C        0.00000    0.68510    0.74310    1.000
    H91      H        0.00000    0.67670    0.77510    1.000
    C273     C        0.00000    0.60030    0.72440    1.000
    O398     O        0.00000    0.56380    0.85410    1.000
    O399     O        0.00000    0.07030    0.19190    1.000
    C274     C        0.00000    0.15150    0.21020    1.000
    C275     C        0.00000    0.18510    0.24310    1.000
    H92      H        0.00000    0.17670    0.27510    1.000
    C276     C        0.00000    0.10030    0.22440    1.000
    O400     O        0.00000    0.06380    0.35410    1.000
    O401     O        0.50000    0.42970    0.80810    1.000
    C277     C        0.50000    0.34850    0.78980    1.000
    C278     C        0.50000    0.31490    0.75690    1.000
    H93      H        0.50000    0.32330    0.72490    1.000
    C279     C        0.50000    0.39970    0.77560    1.000
    O402     O        0.50000    0.43620    0.64590    1.000
    O403     O        0.50000    0.92970    0.30810    1.000
    C280     C        0.50000    0.84850    0.28980    1.000
    C281     C        0.50000    0.81490    0.25690    1.000
    H94      H        0.50000    0.82330    0.22490    1.000
    C282     C        0.50000    0.89970    0.27560    1.000
    O404     O        0.50000    0.93620    0.14590    1.000
    O405     O        0.00000    0.42970    0.30810    1.000
    C283     C        0.00000    0.34850    0.28980    1.000
    C284     C        0.00000    0.31490    0.25690    1.000
    H95      H        0.00000    0.32330    0.22490    1.000
    C285     C        0.00000    0.39970    0.27560    1.000
    O406     O        0.00000    0.43620    0.14590    1.000
    O407     O        0.00000    0.92970    0.80810    1.000
    C286     C        0.00000    0.84850    0.78980    1.000
    C287     C        0.00000    0.81490    0.75690    1.000
    H96      H        0.00000    0.82330    0.72490    1.000
    C288     C        0.00000    0.89970    0.77560    1.000
    O408     O        0.00000    0.93620    0.64590    1.000
    C289     C        0.16290    0.66290    0.50000    1.000
    H97      H        0.13950    0.63950    0.50000    1.000
    C290     C        0.23090    0.73090    0.50000    1.000
    C291     C        0.16290    0.16290    0.00000    1.000
    H98      H        0.13950    0.13950    0.00000    1.000
    C292     C        0.23090    0.23090    0.00000    1.000
    C293     C        0.83710    0.33710    0.50000    1.000
    H99      H        0.86050    0.36050    0.50000    1.000
    C294     C        0.76910    0.26910    0.50000    1.000
    C295     C        0.83710    0.83710    0.00000    1.000
    H100     H        0.86050    0.86050    0.00000    1.000
    C296     C        0.76910    0.76910    0.00000    1.000
    C297     C        0.83710    0.66290    0.50000    1.000
    H101     H        0.86050    0.63950    0.50000    1.000
    C298     C        0.76910    0.73090    0.50000    1.000
    C299     C        0.83710    0.16290    0.00000    1.000
    H102     H        0.86050    0.13950    0.00000    1.000
    C300     C        0.76910    0.23090    0.00000    1.000
    C301     C        0.16290    0.33710    0.50000    1.000
    H103     H        0.13950    0.36050    0.50000    1.000
    C302     C        0.23090    0.26910    0.50000    1.000
    C303     C        0.16290    0.83710    0.00000    1.000
    H104     H        0.13950    0.86050    0.00000    1.000
    C304     C        0.23090    0.76910    0.00000    1.000
    C305     C        0.50000    0.16290    0.66290    1.000
    H105     H        0.50000    0.13950    0.63950    1.000
    C306     C        0.50000    0.23090    0.73090    1.000
    C307     C        0.00000    0.16290    0.16290    1.000
    H106     H        0.00000    0.13950    0.13950    1.000
    C308     C        0.00000    0.23090    0.23090    1.000
    C309     C        0.50000    0.83710    0.33710    1.000
    H107     H        0.50000    0.86050    0.36050    1.000
    C310     C        0.50000    0.76910    0.26910    1.000
    C311     C        0.00000    0.83710    0.83710    1.000
    H108     H        0.00000    0.86050    0.86050    1.000
    C312     C        0.00000    0.76910    0.76910    1.000
    C313     C        0.50000    0.83710    0.66290    1.000
    H109     H        0.50000    0.86050    0.63950    1.000
    C314     C        0.50000    0.76910    0.73090    1.000
    C315     C        0.00000    0.83710    0.16290    1.000
    H110     H        0.00000    0.86050    0.13950    1.000
    C316     C        0.00000    0.76910    0.23090    1.000
    C317     C        0.50000    0.16290    0.33710    1.000
    H111     H        0.50000    0.13950    0.36050    1.000
    C318     C        0.50000    0.23090    0.26910    1.000
    C319     C        0.00000    0.16290    0.83710    1.000
    H112     H        0.00000    0.13950    0.86050    1.000
    C320     C        0.00000    0.23090    0.76910    1.000
    C321     C        0.66290    0.50000    0.16290    1.000
    H113     H        0.63950    0.50000    0.13950    1.000
    C322     C        0.73090    0.50000    0.23090    1.000
    C323     C        0.66290    0.00000    0.66290    1.000
    H114     H        0.63950    0.00000    0.63950    1.000
    C324     C        0.73090    0.00000    0.73090    1.000
    C325     C        0.33710    0.50000    0.83710    1.000
    H115     H        0.36050    0.50000    0.86050    1.000
    C326     C        0.26910    0.50000    0.76910    1.000
    C327     C        0.33710    0.00000    0.33710    1.000
    H116     H        0.36050    0.00000    0.36050    1.000
    C328     C        0.26910    0.00000    0.26910    1.000
    C329     C        0.66290    0.50000    0.83710    1.000
    H117     H        0.63950    0.50000    0.86050    1.000
    C330     C        0.73090    0.50000    0.76910    1.000
    C331     C        0.66290    0.00000    0.33710    1.000
    H118     H        0.63950    0.00000    0.36050    1.000
    C332     C        0.73090    0.00000    0.26910    1.000
    C333     C        0.33710    0.50000    0.16290    1.000
    H119     H        0.36050    0.50000    0.13950    1.000
    C334     C        0.26910    0.50000    0.23090    1.000
    C335     C        0.33710    0.00000    0.66290    1.000
    H120     H        0.36050    0.00000    0.63950    1.000
    C336     C        0.26910    0.00000    0.73090    1.000
    C337     C        0.66290    0.16290    0.50000    1.000
    H121     H        0.63950    0.13950    0.50000    1.000
    C338     C        0.73090    0.23090    0.50000    1.000
    C339     C        0.66290    0.66290    0.00000    1.000
    H122     H        0.63950    0.63950    0.00000    1.000
    C340     C        0.73090    0.73090    0.00000    1.000
    C341     C        0.33710    0.83710    0.50000    1.000
    H123     H        0.36050    0.86050    0.50000    1.000
    C342     C        0.26910    0.76910    0.50000    1.000
    C343     C        0.33710    0.33710    0.00000    1.000
    H124     H        0.36050    0.36050    0.00000    1.000
    C344     C        0.26910    0.26910    0.00000    1.000
    C345     C        0.66290    0.83710    0.50000    1.000
    H125     H        0.63950    0.86050    0.50000    1.000
    C346     C        0.73090    0.76910    0.50000    1.000
    C347     C        0.66290    0.33710    0.00000    1.000
    H126     H        0.63950    0.36050    0.00000    1.000
    C348     C        0.73090    0.26910    0.00000    1.000
    C349     C        0.33710    0.16290    0.50000    1.000
    H127     H        0.36050    0.13950    0.50000    1.000
    C350     C        0.26910    0.23090    0.50000    1.000
    C351     C        0.33710    0.66290    0.00000    1.000
    H128     H        0.36050    0.63950    0.00000    1.000
    C352     C        0.26910    0.73090    0.00000    1.000
    C353     C        0.16290    0.50000    0.33710    1.000
    H129     H        0.13950    0.50000    0.36050    1.000
    C354     C        0.23090    0.50000    0.26910    1.000
    C355     C        0.16290    0.00000    0.83710    1.000
    H130     H        0.13950    0.00000    0.86050    1.000
    C356     C        0.23090    0.00000    0.76910    1.000
    C357     C        0.83710    0.50000    0.66290    1.000
    H131     H        0.86050    0.50000    0.63950    1.000
    C358     C        0.76910    0.50000    0.73090    1.000
    C359     C        0.83710    0.00000    0.16290    1.000
    H132     H        0.86050    0.00000    0.13950    1.000
    C360     C        0.76910    0.00000    0.23090    1.000
    C361     C        0.83710    0.50000    0.33710    1.000
    H133     H        0.86050    0.50000    0.36050    1.000
    C362     C        0.76910    0.50000    0.26910    1.000
    C363     C        0.83710    0.00000    0.83710    1.000
    H134     H        0.86050    0.00000    0.86050    1.000
    C364     C        0.76910    0.00000    0.76910    1.000
    C365     C        0.16290    0.50000    0.66290    1.000
    H135     H        0.13950    0.50000    0.63950    1.000
    C366     C        0.23090    0.50000    0.73090    1.000
    C367     C        0.16290    0.00000    0.16290    1.000
    H136     H        0.13950    0.00000    0.13950    1.000
    C368     C        0.23090    0.00000    0.23090    1.000
    C369     C        0.50000    0.66290    0.83710    1.000
    H137     H        0.50000    0.63950    0.86050    1.000
    C370     C        0.50000    0.73090    0.76910    1.000
    C371     C        0.00000    0.66290    0.33710    1.000
    H138     H        0.00000    0.63950    0.36050    1.000
    C372     C        0.00000    0.73090    0.26910    1.000
    C373     C        0.50000    0.33710    0.16290    1.000
    H139     H        0.50000    0.36050    0.13950    1.000
    C374     C        0.50000    0.26910    0.23090    1.000
    C375     C        0.00000    0.33710    0.66290    1.000
    H140     H        0.00000    0.36050    0.63950    1.000
    C376     C        0.00000    0.26910    0.73090    1.000
    C377     C        0.50000    0.66290    0.16290    1.000
    H141     H        0.50000    0.63950    0.13950    1.000
    C378     C        0.50000    0.73090    0.23090    1.000
    C379     C        0.00000    0.66290    0.66290    1.000
    H142     H        0.00000    0.63950    0.63950    1.000
    C380     C        0.00000    0.73090    0.73090    1.000
    C381     C        0.50000    0.33710    0.83710    1.000
    H143     H        0.50000    0.36050    0.86050    1.000
    C382     C        0.50000    0.26910    0.76910    1.000
    C383     C        0.00000    0.33710    0.33710    1.000
    H144     H        0.00000    0.36050    0.36050    1.000
    C384     C        0.00000    0.26910    0.26910    1.000
