# CIF file generated by openbabel 3.1.0, see https://openbabel.org
data_I
_chemical_name_common 'OLUCAZ_clean'
_cell_length_a 9.0521
_cell_length_b 15.401
_cell_length_c 17.141
_cell_angle_alpha 90
_cell_angle_beta 90
_cell_angle_gamma 90
_space_group_name_H-M_alt 'P 1'
_space_group_name_Hall 'P 1'
loop_
    _symmetry_equiv_pos_as_xyz
    x,y,z
loop_
    _atom_site_label
    _atom_site_type_symbol
    _atom_site_fract_x
    _atom_site_fract_y
    _atom_site_fract_z
    _atom_site_occupancy
    Cu1      Cu       0.57064    0.27827    0.78185    1.000
    Cu2      Cu       0.07064    0.72173    0.21815    1.000
    Cu3      Cu       0.57064    0.77827    0.71815    1.000
    Cu4      Cu       0.07064    0.22173    0.28185    1.000
    H1       H        0.26510    0.69140    0.66790    1.000
    H2       H        0.39110    0.76700    0.87450    1.000
    H3       H        0.13960    0.70750    0.88770    1.000
    H4       H        0.97600    0.66700    0.70030    1.000
    H5       H        0.94120    0.65380    0.78900    1.000
    H6       H        0.07550    0.53420    0.68860    1.000
    H7       H        0.93180    0.51980    0.73780    1.000
    H8       H        0.07670    0.51540    0.85240    1.000
    H9       H        0.21930    0.52570    0.80130    1.000
    H10      H        0.14390    0.38840    0.73790    1.000
    H11      H        0.21230    0.38050    0.82170    1.000
    H12      H        0.85690    0.36110    0.72610    1.000
    H13      H        0.03550    0.32830    0.93410    1.000
    H14      H        0.78340    0.27050    0.93650    1.000
    H15      H        0.80830    0.22050    0.57430    1.000
    H16      H        0.87590    0.02790    0.42110    1.000
    H17      H        0.73750    0.93610    0.49700    1.000
    H18      H        0.65310    0.98190    0.61810    1.000
    H19      H        0.76510    0.30860    0.33210    1.000
    H20      H        0.89110    0.23300    0.12550    1.000
    H21      H        0.63960    0.29250    0.11230    1.000
    H22      H        0.47600    0.33300    0.29970    1.000
    H23      H        0.44120    0.34620    0.21100    1.000
    H24      H        0.57550    0.46580    0.31140    1.000
    H25      H        0.43180    0.48020    0.26220    1.000
    H26      H        0.57670    0.48460    0.14760    1.000
    H27      H        0.71930    0.47430    0.19870    1.000
    H28      H        0.64390    0.61160    0.26210    1.000
    H29      H        0.71230    0.61950    0.17830    1.000
    H30      H        0.35690    0.63890    0.27390    1.000
    H31      H        0.53550    0.67170    0.06590    1.000
    H32      H        0.28340    0.72950    0.06350    1.000
    H33      H        0.30830    0.77950    0.42570    1.000
    H34      H        0.37590    0.97210    0.57890    1.000
    H35      H        0.23750    0.06390    0.50300    1.000
    H36      H        0.15310    0.01810    0.38190    1.000
    H37      H        0.26510    0.19140    0.83210    1.000
    H38      H        0.39110    0.26700    0.62550    1.000
    H39      H        0.13960    0.20750    0.61230    1.000
    H40      H        0.97600    0.16700    0.79970    1.000
    H41      H        0.94120    0.15380    0.71100    1.000
    H42      H        0.07550    0.03420    0.81140    1.000
    H43      H        0.93180    0.01980    0.76220    1.000
    H44      H        0.07670    0.01540    0.64760    1.000
    H45      H        0.21930    0.02570    0.69870    1.000
    H46      H        0.14390    0.88840    0.76210    1.000
    H47      H        0.21230    0.88050    0.67830    1.000
    H48      H        0.85690    0.86110    0.77390    1.000
    H49      H        0.03550    0.82830    0.56590    1.000
    H50      H        0.78340    0.77050    0.56350    1.000
    H51      H        0.80830    0.72050    0.92570    1.000
    H52      H        0.87590    0.52790    0.07890    1.000
    H53      H        0.73750    0.43610    0.00300    1.000
    H54      H        0.65310    0.48190    0.88190    1.000
    H55      H        0.76510    0.80860    0.16790    1.000
    H56      H        0.89110    0.73300    0.37450    1.000
    H57      H        0.63960    0.79250    0.38770    1.000
    H58      H        0.47600    0.83300    0.20030    1.000
    H59      H        0.44120    0.84620    0.28900    1.000
    H60      H        0.57550    0.96580    0.18860    1.000
    H61      H        0.43180    0.98020    0.23780    1.000
    H62      H        0.57670    0.98460    0.35240    1.000
    H63      H        0.71930    0.97430    0.30130    1.000
    H64      H        0.64390    0.11160    0.23790    1.000
    H65      H        0.71230    0.11950    0.32170    1.000
    H66      H        0.35690    0.13890    0.22610    1.000
    H67      H        0.53550    0.17170    0.43410    1.000
    H68      H        0.28340    0.22950    0.43650    1.000
    H69      H        0.30830    0.27950    0.07430    1.000
    H70      H        0.37590    0.47210    0.92110    1.000
    H71      H        0.23750    0.56390    0.99700    1.000
    H72      H        0.15310    0.51810    0.11810    1.000
    C1       C        0.26510    0.70290    0.72120    1.000
    C2       C        0.33380    0.74420    0.83440    1.000
    C3       C        0.19470    0.71150    0.84200    1.000
    C4       C        0.01340    0.64230    0.74850    1.000
    C5       C        0.02950    0.54570    0.73860    1.000
    C6       C        0.12000    0.50210    0.80200    1.000
    C7       C        0.12850    0.40240    0.79250    1.000
    C8       C        0.86920    0.34580    0.77820    1.000
    C9       C        0.96900    0.32810    0.89280    1.000
    C10      C        0.82970    0.29610    0.89390    1.000
    C11      C        0.71890    0.10710    0.60720    1.000
    C12      C        0.79670    0.16280    0.55970    1.000
    C13      C        0.85790    0.13370    0.49030    1.000
    C14      C        0.83580    0.04780    0.46770    1.000
    C15      C        0.75560    0.99260    0.51360    1.000
    C16      C        0.70110    0.02060    0.58520    1.000
    C17      C        0.65620    0.13860    0.68310    1.000
    C18      C        0.94610    0.19440    0.43780    1.000
    C19      C        0.76510    0.29710    0.27880    1.000
    C20      C        0.83380    0.25580    0.16560    1.000
    C21      C        0.69470    0.28850    0.15800    1.000
    C22      C        0.51340    0.35770    0.25150    1.000
    C23      C        0.52950    0.45430    0.26140    1.000
    C24      C        0.62000    0.49790    0.19800    1.000
    C25      C        0.62850    0.59760    0.20750    1.000
    C26      C        0.36920    0.65420    0.22180    1.000
    C27      C        0.46900    0.67190    0.10720    1.000
    C28      C        0.32970    0.70390    0.10610    1.000
    C29      C        0.21890    0.89290    0.39280    1.000
    C30      C        0.29670    0.83720    0.44030    1.000
    C31      C        0.35790    0.86630    0.50970    1.000
    C32      C        0.33580    0.95220    0.53230    1.000
    C33      C        0.25560    0.00740    0.48640    1.000
    C34      C        0.20110    0.97940    0.41480    1.000
    C35      C        0.15620    0.86140    0.31690    1.000
    C36      C        0.44610    0.80560    0.56220    1.000
    C37      C        0.26510    0.20290    0.77880    1.000
    C38      C        0.33380    0.24420    0.66560    1.000
    C39      C        0.19470    0.21150    0.65800    1.000
    C40      C        0.01340    0.14230    0.75150    1.000
    C41      C        0.02950    0.04570    0.76140    1.000
    C42      C        0.12000    0.00210    0.69800    1.000
    C43      C        0.12850    0.90240    0.70750    1.000
    C44      C        0.86920    0.84580    0.72180    1.000
    C45      C        0.96900    0.82810    0.60720    1.000
    C46      C        0.82970    0.79610    0.60610    1.000
    C47      C        0.71890    0.60710    0.89280    1.000
    C48      C        0.79670    0.66280    0.94030    1.000
    C49      C        0.85790    0.63370    0.00970    1.000
    C50      C        0.83580    0.54780    0.03230    1.000
    C51      C        0.75560    0.49260    0.98640    1.000
    C52      C        0.70110    0.52060    0.91480    1.000
    C53      C        0.65620    0.63860    0.81690    1.000
    C54      C        0.94610    0.69440    0.06220    1.000
    C55      C        0.76510    0.79710    0.22120    1.000
    C56      C        0.83380    0.75580    0.33440    1.000
    C57      C        0.69470    0.78850    0.34200    1.000
    C58      C        0.51340    0.85770    0.24850    1.000
    C59      C        0.52950    0.95430    0.23860    1.000
    C60      C        0.62000    0.99790    0.30200    1.000
    C61      C        0.62850    0.09760    0.29250    1.000
    C62      C        0.36920    0.15420    0.27820    1.000
    C63      C        0.46900    0.17190    0.39280    1.000
    C64      C        0.32970    0.20390    0.39390    1.000
    C65      C        0.21890    0.39290    0.10720    1.000
    C66      C        0.29670    0.33720    0.05970    1.000
    C67      C        0.35790    0.36630    0.99030    1.000
    C68      C        0.33580    0.45220    0.96770    1.000
    C69      C        0.25560    0.50740    0.01360    1.000
    C70      C        0.20110    0.47940    0.08520    1.000
    C71      C        0.15620    0.36140    0.18310    1.000
    C72      C        0.44610    0.30560    0.93780    1.000
    N1       N        0.37470    0.73790    0.75860    1.000
    N2       N        0.15240    0.68560    0.76890    1.000
    N3       N        0.99330    0.35970    0.81990    1.000
    N4       N        0.76810    0.30780    0.82100    1.000
    N5       N        0.87470    0.26210    0.24140    1.000
    N6       N        0.65240    0.31440    0.23110    1.000
    N7       N        0.49330    0.64030    0.18010    1.000
    N8       N        0.26810    0.69220    0.17900    1.000
    N9       N        0.37470    0.23790    0.74140    1.000
    N10      N        0.15240    0.18560    0.73110    1.000
    N11      N        0.99330    0.85970    0.68010    1.000
    N12      N        0.76810    0.80780    0.67900    1.000
    N13      N        0.87470    0.76210    0.25860    1.000
    N14      N        0.65240    0.81440    0.26890    1.000
    N15      N        0.49330    0.14030    0.31990    1.000
    N16      N        0.26810    0.19220    0.32100    1.000
    O1       O        0.66100    0.22000    0.69350    1.000
    O2       O        0.60810    0.08510    0.73070    1.000
    O3       O        0.97440    0.16590    0.37110    1.000
    O4       O        0.98630    0.26560    0.46400    1.000
    O5       O        0.16100    0.78000    0.30650    1.000
    O6       O        0.10810    0.91490    0.26930    1.000
    O7       O        0.47440    0.83410    0.62890    1.000
    O8       O        0.48630    0.73440    0.53600    1.000
    O9       O        0.66100    0.72000    0.80650    1.000
    O10      O        0.60810    0.58510    0.76930    1.000
    O11      O        0.97440    0.66590    0.12890    1.000
    O12      O        0.98630    0.76560    0.03600    1.000
    O13      O        0.16100    0.28000    0.19350    1.000
    O14      O        0.10810    0.41490    0.23070    1.000
    O15      O        0.47440    0.33410    0.87110    1.000
    O16      O        0.48630    0.23440    0.96400    1.000
