# CIF file generated by openbabel 3.1.0, see https://openbabel.org
data_I
_chemical_name_common 'image0'
_cell_length_a 21.5
_cell_length_b 21.5
_cell_length_c 22.454
_cell_angle_alpha 90
_cell_angle_beta 90
_cell_angle_gamma 90
_space_group_name_H-M_alt 'P 1'
_space_group_name_Hall 'P 1'
loop_
    _symmetry_equiv_pos_as_xyz
    x,y,z
loop_
    _atom_site_label
    _atom_site_type_symbol
    _atom_site_fract_x
    _atom_site_fract_y
    _atom_site_fract_z
    _atom_site_occupancy
    Zn1      Zn       0.00494    0.01459    0.49376    1.000
    I1       I        0.95241    0.08771    0.56474    1.000
    N1       N        0.95630    0.93620    0.46280    1.000
    C1       C        0.94330    0.93470    0.40580    1.000
    H1       H        0.95140    0.96960    0.38110    1.000
    C2       C        0.91790    0.88180    0.38300    1.000
    H2       H        0.90600    0.88110    0.34230    1.000
    C3       C        0.90870    0.82900    0.41720    1.000
    C4       C        0.92060    0.83490    0.47670    1.000
    H3       H        0.91200    0.80170    0.50340    1.000
    C5       C        0.94610    0.89120    0.49770    1.000
    H4       H        0.95570    0.89550    0.53880    1.000
    N2       N        0.95770    0.55300    0.08140    1.000
    C6       C        0.92150    0.51890    0.11960    1.000
    H5       H        0.91270    0.47680    0.11000    1.000
    C7       C        0.89840    0.54250    0.16950    1.000
    H6       H        0.87410    0.51660    0.19470    1.000
    C8       C        0.90790    0.60080    0.18550    1.000
    C9       C        0.94410    0.63940    0.14600    1.000
    H7       H        0.95320    0.68150    0.15530    1.000
    C10      C        0.96410    0.61280    0.09590    1.000
    H8       H        0.98480    0.63880    0.06800    1.000
    N3       N        0.57940    0.53020    0.46780    1.000
    C11      C        0.60550    0.58270    0.49390    1.000
    H9       H        0.58710    0.60030    0.52840    1.000
    C12      C        0.65860    0.60930    0.46950    1.000
    H10      H        0.67650    0.64520    0.48730    1.000
    C13      C        0.68560    0.58350    0.41890    1.000
    C14      C        0.65940    0.53100    0.39280    1.000
    H11      H        0.67780    0.51340    0.35830    1.000
    C15      C        0.60630    0.50440    0.41720    1.000
    H12      H        0.58840    0.46860    0.39940    1.000
    C16      C        0.88520    0.77090    0.39000    1.000
    N4       N        0.90960    0.75310    0.33710    1.000
    C17      C        0.88830    0.70120    0.31340    1.000
    N5       N        0.90860    0.68150    0.26360    1.000
    C18      C        0.88280    0.62630    0.24170    1.000
    N6       N        0.83630    0.59520    0.26540    1.000
    C19      C        0.81390    0.61760    0.31620    1.000
    N7       N        0.76190    0.58880    0.34230    1.000
    C20      C        0.74360    0.61590    0.39350    1.000
    N8       N        0.76440    0.66410    0.42330    1.000
    C21      C        0.81420    0.69140    0.39570    1.000
    N9       N        0.83800    0.74390    0.42300    1.000
    C22      C        0.83710    0.66930    0.34280    1.000
    Zn2      Zn       0.49506    0.98541    0.99376    1.000
    I2       I        0.54759    0.91229    0.06474    1.000
    N10      N        0.54370    0.06380    0.96280    1.000
    C23      C        0.55670    0.06530    0.90580    1.000
    H13      H        0.54860    0.03040    0.88110    1.000
    C24      C        0.58210    0.11820    0.88300    1.000
    H14      H        0.59400    0.11890    0.84230    1.000
    C25      C        0.59130    0.17100    0.91720    1.000
    C26      C        0.57940    0.16510    0.97670    1.000
    H15      H        0.58800    0.19830    0.00340    1.000
    C27      C        0.55390    0.10880    0.99770    1.000
    H16      H        0.54430    0.10450    0.03880    1.000
    N11      N        0.54230    0.44700    0.58140    1.000
    C28      C        0.57850    0.48110    0.61960    1.000
    H17      H        0.58730    0.52320    0.61000    1.000
    C29      C        0.60160    0.45750    0.66950    1.000
    H18      H        0.62590    0.48340    0.69470    1.000
    C30      C        0.59210    0.39920    0.68550    1.000
    C31      C        0.55590    0.36060    0.64600    1.000
    H19      H        0.54680    0.31850    0.65530    1.000
    C32      C        0.53590    0.38720    0.59590    1.000
    H20      H        0.51520    0.36120    0.56800    1.000
    N12      N        0.92060    0.46980    0.96780    1.000
    C33      C        0.89450    0.41730    0.99390    1.000
    H21      H        0.91290    0.39970    0.02840    1.000
    C34      C        0.84140    0.39070    0.96950    1.000
    H22      H        0.82350    0.35480    0.98730    1.000
    C35      C        0.81440    0.41650    0.91890    1.000
    C36      C        0.84060    0.46900    0.89280    1.000
    H23      H        0.82220    0.48660    0.85830    1.000
    C37      C        0.89370    0.49560    0.91720    1.000
    H24      H        0.91160    0.53140    0.89940    1.000
    C38      C        0.61480    0.22910    0.89000    1.000
    N13      N        0.59040    0.24690    0.83710    1.000
    C39      C        0.61170    0.29880    0.81340    1.000
    N14      N        0.59140    0.31850    0.76360    1.000
    C40      C        0.61720    0.37370    0.74170    1.000
    N15      N        0.66370    0.40480    0.76540    1.000
    C41      C        0.68610    0.38240    0.81620    1.000
    N16      N        0.73810    0.41120    0.84230    1.000
    C42      C        0.75640    0.38410    0.89350    1.000
    N17      N        0.73560    0.33590    0.92330    1.000
    C43      C        0.68580    0.30860    0.89570    1.000
    N18      N        0.66200    0.25610    0.92300    1.000
    C44      C        0.66290    0.33070    0.84280    1.000
    Zn3      Zn       0.99506    0.51459    0.00624    1.000
    I3       I        0.04759    0.58771    0.93526    1.000
    N19      N        0.04370    0.43620    0.03720    1.000
    C45      C        0.05670    0.43470    0.09420    1.000
    H25      H        0.04860    0.46960    0.11890    1.000
    C46      C        0.08210    0.38180    0.11700    1.000
    H26      H        0.09400    0.38110    0.15770    1.000
    C47      C        0.09130    0.32900    0.08280    1.000
    C48      C        0.07940    0.33490    0.02330    1.000
    H27      H        0.08800    0.30170    0.99660    1.000
    C49      C        0.05390    0.39120    0.00230    1.000
    H28      H        0.04430    0.39550    0.96120    1.000
    N20      N        0.04230    0.05300    0.41860    1.000
    C50      C        0.07850    0.01890    0.38040    1.000
    H29      H        0.08730    0.97680    0.39000    1.000
    C51      C        0.10160    0.04250    0.33050    1.000
    H30      H        0.12590    0.01660    0.30530    1.000
    C52      C        0.09210    0.10080    0.31450    1.000
    C53      C        0.05590    0.13940    0.35400    1.000
    H31      H        0.04680    0.18150    0.34470    1.000
    C54      C        0.03590    0.11280    0.40410    1.000
    H32      H        0.01520    0.13880    0.43200    1.000
    N21      N        0.42060    0.03020    0.03220    1.000
    C55      C        0.39450    0.08270    0.00610    1.000
    H33      H        0.41290    0.10030    0.97160    1.000
    C56      C        0.34140    0.10930    0.03050    1.000
    H34      H        0.32350    0.14520    0.01270    1.000
    C57      C        0.31440    0.08350    0.08110    1.000
    C58      C        0.34060    0.03100    0.10720    1.000
    H35      H        0.32220    0.01340    0.14170    1.000
    C59      C        0.39370    0.00440    0.08280    1.000
    H36      H        0.41160    0.96860    0.10060    1.000
    C60      C        0.11480    0.27090    0.11000    1.000
    N22      N        0.09040    0.25310    0.16290    1.000
    C61      C        0.11170    0.20120    0.18660    1.000
    N23      N        0.09140    0.18150    0.23640    1.000
    C62      C        0.11720    0.12630    0.25830    1.000
    N24      N        0.16370    0.09520    0.23460    1.000
    C63      C        0.18610    0.11760    0.18380    1.000
    N25      N        0.23810    0.08880    0.15770    1.000
    C64      C        0.25640    0.11590    0.10650    1.000
    N26      N        0.23560    0.16410    0.07670    1.000
    C65      C        0.18580    0.19140    0.10430    1.000
    N27      N        0.16200    0.24390    0.07700    1.000
    C66      C        0.16290    0.16930    0.15720    1.000
    Zn4      Zn       0.50494    0.48541    0.50624    1.000
    I4       I        0.45241    0.41229    0.43526    1.000
    N28      N        0.45630    0.56380    0.53720    1.000
    C67      C        0.44330    0.56530    0.59420    1.000
    H37      H        0.45140    0.53040    0.61890    1.000
    C68      C        0.41790    0.61820    0.61700    1.000
    H38      H        0.40600    0.61890    0.65770    1.000
    C69      C        0.40870    0.67100    0.58280    1.000
    C70      C        0.42060    0.66510    0.52330    1.000
    H39      H        0.41200    0.69830    0.49660    1.000
    C71      C        0.44610    0.60880    0.50230    1.000
    H40      H        0.45570    0.60450    0.46120    1.000
    N29      N        0.45770    0.94700    0.91860    1.000
    C72      C        0.42150    0.98110    0.88040    1.000
    H41      H        0.41270    0.02320    0.89000    1.000
    C73      C        0.39840    0.95750    0.83050    1.000
    H42      H        0.37410    0.98340    0.80530    1.000
    C74      C        0.40790    0.89920    0.81450    1.000
    C75      C        0.44410    0.86060    0.85400    1.000
    H43      H        0.45320    0.81850    0.84470    1.000
    C76      C        0.46410    0.88720    0.90410    1.000
    H44      H        0.48480    0.86120    0.93200    1.000
    N30      N        0.07940    0.96980    0.53220    1.000
    C77      C        0.10550    0.91730    0.50610    1.000
    H45      H        0.08710    0.89970    0.47160    1.000
    C78      C        0.15860    0.89070    0.53050    1.000
    H46      H        0.17650    0.85480    0.51270    1.000
    C79      C        0.18560    0.91650    0.58110    1.000
    C80      C        0.15940    0.96900    0.60720    1.000
    H47      H        0.17780    0.98660    0.64170    1.000
    C81      C        0.10630    0.99560    0.58280    1.000
    H48      H        0.08840    0.03140    0.60060    1.000
    C82      C        0.38520    0.72910    0.61000    1.000
    N31      N        0.40960    0.74690    0.66290    1.000
    C83      C        0.38830    0.79880    0.68660    1.000
    N32      N        0.40860    0.81850    0.73640    1.000
    C84      C        0.38280    0.87370    0.75830    1.000
    N33      N        0.33630    0.90480    0.73460    1.000
    C85      C        0.31390    0.88240    0.68380    1.000
    N34      N        0.26190    0.91120    0.65770    1.000
    C86      C        0.24360    0.88410    0.60650    1.000
    N35      N        0.26440    0.83590    0.57670    1.000
    C87      C        0.31420    0.80860    0.60430    1.000
    N36      N        0.33800    0.75610    0.57700    1.000
    C88      C        0.33710    0.83070    0.65720    1.000
    Zn5      Zn       0.50672    0.99309    0.50131    1.000
    I5       I        0.43107    0.94238    0.57167    1.000
    N37      N        0.53810    0.94650    0.42920    1.000
    C89      C        0.49620    0.93020    0.38470    1.000
    H49      H        0.45280    0.93490    0.39120    1.000
    C90      C        0.51780    0.90700    0.33080    1.000
    H50      H        0.48920    0.89590    0.30040    1.000
    C91      C        0.58130    0.90010    0.32130    1.000
    C92      C        0.62320    0.91640    0.36580    1.000
    H51      H        0.66660    0.91170    0.35930    1.000
    C93      C        0.60160    0.93960    0.41970    1.000
    H52      H        0.63020    0.95070    0.45020    1.000
    N38      N        0.53340    0.56850    0.03880    1.000
    C94      C        0.58370    0.59490    0.01710    1.000
    H53      H        0.60260    0.57630    0.98320    1.000
    C95      C        0.61100    0.64790    0.03990    1.000
    H54      H        0.64630    0.66560    0.02110    1.000
    C96      C        0.58630    0.67470    0.09030    1.000
    C97      C        0.53560    0.64430    0.11860    1.000
    H55      H        0.51900    0.65890    0.15530    1.000
    C98      C        0.51080    0.59080    0.08930    1.000
    H56      H        0.47630    0.57020    0.10700    1.000
    N39      N        0.91250    0.97130    0.03750    1.000
    C99      C        0.89450    0.98670    0.09220    1.000
    H57      H        0.92010    0.01300    0.11590    1.000
    C100     C        0.83870    0.96480    0.11500    1.000
    H58      H        0.82370    0.98090    0.15170    1.000
    C101     C        0.80570    0.92160    0.08620    1.000
    C102     C        0.82410    0.90620    0.02820    1.000
    H59      H        0.80110    0.87730    0.00490    1.000
    C103     C        0.87790    0.93520    0.00570    1.000
    H60      H        0.88920    0.92790    0.96540    1.000
    C104     C        0.60380    0.87670    0.25960    1.000
    N40      N        0.57660    0.82670    0.23860    1.000
    C105     C        0.60350    0.80520    0.18940    1.000
    N41      N        0.58140    0.75100    0.16520    1.000
    C106     C        0.61060    0.73260    0.11720    1.000
    N42      N        0.65890    0.75580    0.08830    1.000
    C107     C        0.68150    0.80740    0.11330    1.000
    N43      N        0.73310    0.83790    0.08800    1.000
    C108     C        0.74870    0.88960    0.11500    1.000
    N44      N        0.72760    0.91810    0.16320    1.000
    C109     C        0.67980    0.88790    0.18870    1.000
    N45      N        0.65460    0.91180    0.23950    1.000
    C110     C        0.65470    0.83400    0.16300    1.000
    Zn6      Zn       0.99328    0.00691    0.00131    1.000
    I6       I        0.06893    0.05762    0.07167    1.000
    N46      N        0.96190    0.05350    0.92920    1.000
    C111     C        0.00380    0.06980    0.88470    1.000
    H61      H        0.04720    0.06510    0.89120    1.000
    C112     C        0.98220    0.09300    0.83080    1.000
    H62      H        0.01080    0.10410    0.80040    1.000
    C113     C        0.91870    0.09990    0.82130    1.000
    C114     C        0.87680    0.08360    0.86580    1.000
    H63      H        0.83340    0.08830    0.85930    1.000
    C115     C        0.89840    0.06040    0.91970    1.000
    H64      H        0.86980    0.04930    0.95020    1.000
    N47      N        0.96660    0.43150    0.53880    1.000
    C116     C        0.91630    0.40510    0.51710    1.000
    H65      H        0.89740    0.42370    0.48320    1.000
    C117     C        0.88900    0.35210    0.53990    1.000
    H66      H        0.85370    0.33440    0.52110    1.000
    C118     C        0.91370    0.32530    0.59030    1.000
    C119     C        0.96440    0.35570    0.61860    1.000
    H67      H        0.98100    0.34110    0.65530    1.000
    C120     C        0.98920    0.40920    0.58930    1.000
    H68      H        0.02370    0.42980    0.60700    1.000
    N48      N        0.58750    0.02870    0.53750    1.000
    C121     C        0.60550    0.01330    0.59220    1.000
    H69      H        0.57990    0.98700    0.61590    1.000
    C122     C        0.66130    0.03520    0.61500    1.000
    H70      H        0.67630    0.01910    0.65170    1.000
    C123     C        0.69430    0.07840    0.58620    1.000
    C124     C        0.67590    0.09380    0.52820    1.000
    H71      H        0.69890    0.12270    0.50490    1.000
    C125     C        0.62210    0.06480    0.50570    1.000
    H72      H        0.61080    0.07210    0.46540    1.000
    C126     C        0.89620    0.12330    0.75960    1.000
    N49      N        0.92340    0.17330    0.73860    1.000
    C127     C        0.89650    0.19480    0.68940    1.000
    N50      N        0.91860    0.24900    0.66520    1.000
    C128     C        0.88940    0.26740    0.61720    1.000
    N51      N        0.84110    0.24420    0.58830    1.000
    C129     C        0.81850    0.19260    0.61330    1.000
    N52      N        0.76690    0.16210    0.58800    1.000
    C130     C        0.75130    0.11040    0.61500    1.000
    N53      N        0.77240    0.08190    0.66320    1.000
    C131     C        0.82020    0.11210    0.68870    1.000
    N54      N        0.84540    0.08820    0.73950    1.000
    C132     C        0.84530    0.16600    0.66300    1.000
    Zn7      Zn       0.49328    0.49309    0.99869    1.000
    I7       I        0.56893    0.44238    0.92833    1.000
    N55      N        0.46190    0.44650    0.07080    1.000
    C133     C        0.50380    0.43020    0.11530    1.000
    H73      H        0.54720    0.43490    0.10880    1.000
    C134     C        0.48220    0.40700    0.16920    1.000
    H74      H        0.51080    0.39590    0.19960    1.000
    C135     C        0.41870    0.40010    0.17870    1.000
    C136     C        0.37680    0.41640    0.13420    1.000
    H75      H        0.33340    0.41170    0.14070    1.000
    C137     C        0.39840    0.43960    0.08030    1.000
    H76      H        0.36980    0.45070    0.04980    1.000
    N56      N        0.46660    0.06850    0.46120    1.000
    C138     C        0.41630    0.09490    0.48290    1.000
    H77      H        0.39740    0.07630    0.51680    1.000
    C139     C        0.38900    0.14790    0.46010    1.000
    H78      H        0.35370    0.16560    0.47890    1.000
    C140     C        0.41370    0.17470    0.40970    1.000
    C141     C        0.46440    0.14430    0.38140    1.000
    H79      H        0.48100    0.15890    0.34470    1.000
    C142     C        0.48920    0.09080    0.41070    1.000
    H80      H        0.52370    0.07020    0.39300    1.000
    N57      N        0.08750    0.47130    0.46250    1.000
    C143     C        0.10550    0.48670    0.40780    1.000
    H81      H        0.07990    0.51300    0.38410    1.000
    C144     C        0.16130    0.46480    0.38500    1.000
    H82      H        0.17630    0.48090    0.34830    1.000
    C145     C        0.19430    0.42160    0.41380    1.000
    C146     C        0.17590    0.40620    0.47180    1.000
    H83      H        0.19890    0.37730    0.49510    1.000
    C147     C        0.12210    0.43520    0.49430    1.000
    H84      H        0.11080    0.42790    0.53460    1.000
    C148     C        0.39620    0.37670    0.24040    1.000
    N58      N        0.42340    0.32670    0.26140    1.000
    C149     C        0.39650    0.30520    0.31060    1.000
    N59      N        0.41860    0.25100    0.33480    1.000
    C150     C        0.38940    0.23260    0.38280    1.000
    N60      N        0.34110    0.25580    0.41170    1.000
    C151     C        0.31850    0.30740    0.38670    1.000
    N61      N        0.26690    0.33790    0.41200    1.000
    C152     C        0.25130    0.38960    0.38500    1.000
    N62      N        0.27240    0.41810    0.33680    1.000
    C153     C        0.32020    0.38790    0.31130    1.000
    N63      N        0.34540    0.41180    0.26050    1.000
    C154     C        0.34530    0.33400    0.33700    1.000
    Zn8      Zn       0.00672    0.50691    0.49869    1.000
    I8       I        0.93107    0.55762    0.42833    1.000
    N64      N        0.03810    0.55350    0.57080    1.000
    C155     C        0.99620    0.56980    0.61530    1.000
    H85      H        0.95280    0.56510    0.60880    1.000
    C156     C        0.01780    0.59300    0.66920    1.000
    H86      H        0.98920    0.60410    0.69960    1.000
    C157     C        0.08130    0.59990    0.67870    1.000
    C158     C        0.12320    0.58360    0.63420    1.000
    H87      H        0.16660    0.58830    0.64070    1.000
    C159     C        0.10160    0.56040    0.58030    1.000
    H88      H        0.13020    0.54930    0.54980    1.000
    N65      N        0.03340    0.93150    0.96120    1.000
    C160     C        0.08370    0.90510    0.98290    1.000
    H89      H        0.10260    0.92370    0.01680    1.000
    C161     C        0.11100    0.85210    0.96010    1.000
    H90      H        0.14630    0.83440    0.97890    1.000
    C162     C        0.08630    0.82530    0.90970    1.000
    C163     C        0.03560    0.85570    0.88140    1.000
    H91      H        0.01900    0.84110    0.84470    1.000
    C164     C        0.01080    0.90920    0.91070    1.000
    H92      H        0.97630    0.92980    0.89300    1.000
    N66      N        0.41250    0.52870    0.96250    1.000
    C165     C        0.39450    0.51330    0.90780    1.000
    H93      H        0.42010    0.48700    0.88410    1.000
    C166     C        0.33870    0.53520    0.88500    1.000
    H94      H        0.32370    0.51910    0.84830    1.000
    C167     C        0.30570    0.57840    0.91380    1.000
    C168     C        0.32410    0.59380    0.97180    1.000
    H95      H        0.30110    0.62270    0.99510    1.000
    C169     C        0.37790    0.56480    0.99430    1.000
    H96      H        0.38920    0.57210    0.03460    1.000
    C170     C        0.10380    0.62330    0.74040    1.000
    N67      N        0.07660    0.67330    0.76140    1.000
    C171     C        0.10350    0.69480    0.81060    1.000
    N68      N        0.08140    0.74900    0.83480    1.000
    C172     C        0.11060    0.76740    0.88280    1.000
    N69      N        0.15890    0.74420    0.91170    1.000
    C173     C        0.18150    0.69260    0.88670    1.000
    N70      N        0.23310    0.66210    0.91200    1.000
    C174     C        0.24870    0.61040    0.88500    1.000
    N71      N        0.22760    0.58190    0.83680    1.000
    C175     C        0.17980    0.61210    0.81130    1.000
    N72      N        0.15460    0.58820    0.76050    1.000
    C176     C        0.15470    0.66600    0.83700    1.000
