# CIF file generated by openbabel 3.1.0, see https://openbabel.org
data_I
_chemical_name_common 'image0'
_cell_length_a 8.4529
_cell_length_b 9.3581
_cell_length_c 12.884
_cell_angle_alpha 90
_cell_angle_beta 105.265
_cell_angle_gamma 90
_space_group_name_H-M_alt 'P 1'
_space_group_name_Hall 'P 1'
loop_
    _symmetry_equiv_pos_as_xyz
    x,y,z
loop_
    _atom_site_label
    _atom_site_type_symbol
    _atom_site_fract_x
    _atom_site_fract_y
    _atom_site_fract_z
    _atom_site_occupancy
    N1       N        0.71860    0.12920    0.99750    1.000
    N2       N        0.55100    0.04830    0.17521    1.000
    N3       N        0.33780    0.19060    0.95940    1.000
    N4       N        0.21860    0.62920    0.99750    1.000
    N5       N        0.05100    0.54830    0.17521    1.000
    N6       N        0.83780    0.69060    0.95940    1.000
    N7       N        0.28140    0.12920    0.50250    1.000
    N8       N        0.44900    0.04830    0.32479    1.000
    N9       N        0.66220    0.19060    0.54060    1.000
    N10      N        0.78140    0.62920    0.50250    1.000
    N11      N        0.94900    0.54830    0.32479    1.000
    N12      N        0.16220    0.69060    0.54060    1.000
    N13      N        0.28140    0.87080    0.00250    1.000
    N14      N        0.44900    0.95170    0.82479    1.000
    N15      N        0.66220    0.80940    0.04060    1.000
    N16      N        0.78140    0.37080    0.00250    1.000
    N17      N        0.94900    0.45170    0.82479    1.000
    N18      N        0.16220    0.30940    0.04060    1.000
    N19      N        0.71860    0.87080    0.49750    1.000
    N20      N        0.55100    0.95170    0.67521    1.000
    N21      N        0.33780    0.80940    0.45940    1.000
    N22      N        0.21860    0.37080    0.49750    1.000
    N23      N        0.05100    0.45170    0.67521    1.000
    N24      N        0.83780    0.30940    0.45940    1.000
    Mn1      Mn       0.50000    0.00000    0.00000    1.000
    Mn2      Mn       0.00000    0.50000    0.00000    1.000
    Mn3      Mn       0.50000    0.00000    0.50000    1.000
    Mn4      Mn       0.00000    0.50000    0.50000    1.000
    N25      N        0.50000    0.04550    0.25000    1.000
    N26      N        0.00000    0.54550    0.25000    1.000
    N27      N        0.50000    0.95450    0.75000    1.000
    N28      N        0.00000    0.45450    0.75000    1.000
    N29      N        0.75000    0.25000    0.00000    1.000
    N30      N        0.25000    0.25000    0.50000    1.000
    N31      N        0.25000    0.75000    0.00000    1.000
    N32      N        0.75000    0.75000    0.50000    1.000
    N33      N        0.25000    0.25000    0.00000    1.000
    N34      N        0.75000    0.25000    0.50000    1.000
    N35      N        0.75000    0.75000    0.00000    1.000
    N36      N        0.25000    0.75000    0.50000    1.000
