# CIF file generated by openbabel 3.1.0, see https://openbabel.org
data_I
_chemical_name_common 'image0'
_cell_length_a 11.3805
_cell_length_b 9.8406
_cell_length_c 14.5057
_cell_angle_alpha 90
_cell_angle_beta 91.429
_cell_angle_gamma 90
_space_group_name_H-M_alt 'P 1'
_space_group_name_Hall 'P 1'
loop_
    _symmetry_equiv_pos_as_xyz
    x,y,z
loop_
    _atom_site_label
    _atom_site_type_symbol
    _atom_site_fract_x
    _atom_site_fract_y
    _atom_site_fract_z
    _atom_site_occupancy
    Mg1      Mg       0.25647    0.41905    0.63437    1.000
    Mg2      Mg       0.23929    0.60922    0.81060    1.000
    O1       O        0.13109    0.50375    0.71982    1.000
    O2       O        0.96310    0.50172    0.63788    1.000
    O3       O        0.15722    0.24187    0.61046    1.000
    O4       O        0.01837    0.29229    0.50396    1.000
    O5       O        0.39986    0.34726    0.56333    1.000
    O6       O        0.39008    0.12511    0.59708    1.000
    O7       O        0.30748    0.29732    0.74687    1.000
    O8       O        0.31286    0.44012    0.86741    1.000
    O9       O        0.18277    0.52389    0.52466    1.000
    O10      O        0.34981    0.60195    0.46589    1.000
    O11      O        0.34829    0.57942    0.69661    1.000
    O12      O        0.51428    0.61049    0.61969    1.000
    C1       C        0.02053    0.51646    0.71069    1.000
    H1       H        0.97920    0.53870    0.76310    1.000
    C2       C        0.07663    0.21114    0.55138    1.000
    H2       H        0.06020    0.11930    0.54320    1.000
    C3       C        0.43339    0.22355    0.55705    1.000
    H3       H        0.49610    0.20600    0.51890    1.000
    C4       C        0.32876    0.32743    0.83125    1.000
    H4       H        0.35890    0.25880    0.86900    1.000
    C5       C        0.24174    0.59788    0.46970    1.000
    H5       H        0.19930    0.65340    0.42910    1.000
    C6       C        0.44822    0.63435    0.68384    1.000
    H6       H        0.47360    0.69850    0.72700    1.000
    Mg3      Mg       0.24353    0.91905    0.86563    1.000
    Mg4      Mg       0.26071    0.10922    0.68940    1.000
    O13      O        0.36891    0.00375    0.78018    1.000
    O14      O        0.53690    0.00172    0.86212    1.000
    O15      O        0.34278    0.74187    0.88954    1.000
    O16      O        0.48163    0.79229    0.99604    1.000
    O17      O        0.10014    0.84726    0.93667    1.000
    O18      O        0.10992    0.62511    0.90292    1.000
    O19      O        0.19252    0.79732    0.75313    1.000
    O20      O        0.18714    0.94012    0.63259    1.000
    O21      O        0.31723    0.02389    0.97534    1.000
    O22      O        0.15019    0.10195    0.03411    1.000
    O23      O        0.15171    0.07942    0.80339    1.000
    O24      O        0.98572    0.11049    0.88031    1.000
    C7       C        0.47947    0.01646    0.78931    1.000
    H7       H        0.52080    0.03870    0.73690    1.000
    C8       C        0.42337    0.71114    0.94862    1.000
    H8       H        0.43980    0.61930    0.95680    1.000
    C9       C        0.06661    0.72355    0.94295    1.000
    H9       H        0.00390    0.70600    0.98110    1.000
    C10      C        0.17124    0.82743    0.66875    1.000
    H10      H        0.14110    0.75880    0.63100    1.000
    C11      C        0.25826    0.09788    0.03030    1.000
    H11      H        0.30070    0.15340    0.07090    1.000
    C12      C        0.05178    0.13435    0.81616    1.000
    H12      H        0.02640    0.19850    0.77300    1.000
    Mg5      Mg       0.74353    0.58095    0.36563    1.000
    Mg6      Mg       0.76071    0.39078    0.18940    1.000
    O25      O        0.86891    0.49625    0.28018    1.000
    O26      O        0.03690    0.49828    0.36212    1.000
    O27      O        0.84278    0.75813    0.38954    1.000
    O28      O        0.98163    0.70771    0.49604    1.000
    O29      O        0.60014    0.65274    0.43667    1.000
    O30      O        0.60992    0.87489    0.40292    1.000
    O31      O        0.69252    0.70268    0.25313    1.000
    O32      O        0.68714    0.55988    0.13259    1.000
    O33      O        0.81723    0.47611    0.47534    1.000
    O34      O        0.65019    0.39805    0.53411    1.000
    O35      O        0.65171    0.42058    0.30339    1.000
    O36      O        0.48572    0.38951    0.38031    1.000
    C13      C        0.97947    0.48354    0.28931    1.000
    H13      H        0.02080    0.46130    0.23690    1.000
    C14      C        0.92337    0.78886    0.44862    1.000
    H14      H        0.93980    0.88070    0.45680    1.000
    C15      C        0.56661    0.77645    0.44295    1.000
    H15      H        0.50390    0.79400    0.48110    1.000
    C16      C        0.67124    0.67257    0.16875    1.000
    H16      H        0.64110    0.74120    0.13100    1.000
    C17      C        0.75826    0.40212    0.53030    1.000
    H17      H        0.80070    0.34660    0.57090    1.000
    C18      C        0.55178    0.36565    0.31616    1.000
    H18      H        0.52640    0.30150    0.27300    1.000
    Mg7      Mg       0.75647    0.08095    0.13437    1.000
    Mg8      Mg       0.73929    0.89078    0.31060    1.000
    O37      O        0.63109    0.99625    0.21982    1.000
    O38      O        0.46310    0.99828    0.13788    1.000
    O39      O        0.65722    0.25813    0.11046    1.000
    O40      O        0.51837    0.20771    0.00396    1.000
    O41      O        0.89986    0.15274    0.06333    1.000
    O42      O        0.89008    0.37489    0.09708    1.000
    O43      O        0.80748    0.20268    0.24687    1.000
    O44      O        0.81286    0.05988    0.36741    1.000
    O45      O        0.68277    0.97611    0.02466    1.000
    O46      O        0.84981    0.89805    0.96589    1.000
    O47      O        0.84829    0.92058    0.19661    1.000
    O48      O        0.01428    0.88951    0.11969    1.000
    C19      C        0.52053    0.98354    0.21069    1.000
    H19      H        0.47920    0.96130    0.26310    1.000
    C20      C        0.57663    0.28886    0.05138    1.000
    H20      H        0.56020    0.38070    0.04320    1.000
    C21      C        0.93339    0.27645    0.05705    1.000
    H21      H        0.99610    0.29400    0.01890    1.000
    C22      C        0.82876    0.17257    0.33125    1.000
    H22      H        0.85890    0.24120    0.36900    1.000
    C23      C        0.74174    0.90212    0.96970    1.000
    H23      H        0.69930    0.84660    0.92910    1.000
    C24      C        0.94822    0.86565    0.18384    1.000
    H24      H        0.97360    0.80150    0.22700    1.000
    Mg9      Mg       0.00000    0.50000    0.50000    1.000
    Mg10     Mg       0.50000    0.00000    0.00000    1.000
    Mg11     Mg       0.50000    0.50000    0.50000    1.000
    Mg12     Mg       0.00000    0.00000    0.00000    1.000
