# CIF file generated by openbabel 3.1.0, see https://openbabel.org
data_I
_chemical_name_common 'image0'
_cell_length_a 21.5599
_cell_length_b 21.5599
_cell_length_c 12.8974
_cell_angle_alpha 90
_cell_angle_beta 90
_cell_angle_gamma 90
_space_group_name_H-M_alt 'P 1'
_space_group_name_Hall 'P 1'
loop_
    _symmetry_equiv_pos_as_xyz
    x,y,z
loop_
    _atom_site_label
    _atom_site_type_symbol
    _atom_site_fract_x
    _atom_site_fract_y
    _atom_site_fract_z
    _atom_site_occupancy
    Cu1      Cu       0.05812    0.31314    0.68584    1.000
    O1       O        0.14595    0.26221    0.56020    1.000
    O2       O        0.05305    0.30172    0.53160    1.000
    O3       O        0.09439    0.39404    0.66540    1.000
    N1       N        0.16338    0.22898    0.36520    1.000
    H1       H        0.16320    0.19350    0.32430    1.000
    N2       N        0.09811    0.31818    0.82610    1.000
    H2       H        0.12130    0.28200    0.83270    1.000
    C1       C        0.09960    0.27183    0.50210    1.000
    C2       C        0.09797    0.24310    0.39570    1.000
    H3       H        0.07930    0.27300    0.34520    1.000
    C3       C        0.05970    0.18430    0.39890    1.000
    C4       C        0.19123    0.28050    0.30380    1.000
    H4       H        0.23530    0.27080    0.28940    1.000
    H5       H        0.19000    0.31910    0.34550    1.000
    C5       C        0.15759    0.29140    0.20200    1.000
    C6       C        0.15410    0.24610    0.12720    1.000
    H6       H        0.17510    0.20790    0.13790    1.000
    C7       C        0.12130    0.25450    0.03800    1.000
    H7       H        0.11920    0.22180    0.98870    1.000
    C8       C        0.09101    0.30950    0.01790    1.000
    C9       C        0.09590    0.35620    0.09230    1.000
    H8       H        0.07610    0.39490    0.08070    1.000
    C10      C        0.12850    0.34700    0.18140    1.000
    H9       H        0.13130    0.37980    0.23050    1.000
    C11      C        0.12908    0.41378    0.73680    1.000
    C12      C        0.14388    0.36931    0.82600    1.000
    H10      H        0.14120    0.39230    0.89320    1.000
    C13      C        0.20992    0.34300    0.81300    1.000
    H11      H        0.21280    0.30400    0.85340    1.000
    H12      H        0.21590    0.33210    0.73910    1.000
    C14      C        0.26250    0.38460    0.84560    1.000
    H13      H        0.25770    0.42480    0.80780    1.000
    C15      C        0.26270    0.39870    0.95940    1.000
    H14      H        0.29790    0.42590    0.97570    1.000
    H15      H        0.26660    0.36000    0.99870    1.000
    H16      H        0.22390    0.41950    0.97830    1.000
    C16      C        0.32340    0.35650    0.81250    1.000
    H17      H        0.35750    0.38370    0.83390    1.000
    H18      H        0.32390    0.35190    0.73690    1.000
    H19      H        0.32840    0.31580    0.84510    1.000
    C17      C        0.05630    0.31930    0.91750    1.000
    H20      H        0.02460    0.28650    0.90980    1.000
    H21      H        0.03470    0.35980    0.92000    1.000
    O4       O        0.15396    0.46528    0.73810    1.000
    C18      C        0.02420    0.16670    0.30350    1.000
    H22      H        0.05640    0.15090    0.25440    1.000
    C19      C        0.98920    0.21620    0.24180    1.000
    H23      H        0.96010    0.23780    0.28770    1.000
    H24      H        0.96630    0.19650    0.18510    1.000
    H25      H        0.01890    0.24610    0.21320    1.000
    C20      C        0.98100    0.11150    0.32070    1.000
    H26      H        0.00270    0.07950    0.36080    1.000
    H27      H        0.96840    0.09430    0.25350    1.000
    H28      H        0.94410    0.12510    0.35890    1.000
    C21      C        0.99340    0.18380    0.39350    1.000
    H29      H        0.97850    0.20560    0.45730    1.000
    C22      C        0.97060    0.11600    0.40300    1.000
    H30      H        0.98390    0.09240    0.34200    1.000
    H31      H        0.92520    0.11540    0.40750    1.000
    H32      H        0.98820    0.09720    0.46560    1.000
    C23      C        0.97100    0.22290    0.30170    1.000
    H33      H        0.99580    0.26100    0.29740    1.000
    H34      H        0.92730    0.23370    0.31150    1.000
    H35      H        0.97580    0.19920    0.23740    1.000
    Cu2      Cu       0.94188    0.68686    0.68584    1.000
    O5       O        0.85405    0.73779    0.56020    1.000
    O6       O        0.94695    0.69828    0.53160    1.000
    O7       O        0.90561    0.60596    0.66540    1.000
    N3       N        0.83662    0.77102    0.36520    1.000
    H36      H        0.83680    0.80650    0.32430    1.000
    N4       N        0.90189    0.68182    0.82610    1.000
    H37      H        0.87870    0.71800    0.83270    1.000
    C24      C        0.90040    0.72817    0.50210    1.000
    C25      C        0.90203    0.75690    0.39570    1.000
    H38      H        0.92070    0.72700    0.34520    1.000
    C26      C        0.94030    0.81570    0.39890    1.000
    C27      C        0.80877    0.71950    0.30380    1.000
    H39      H        0.76470    0.72920    0.28940    1.000
    H40      H        0.81000    0.68090    0.34550    1.000
    C28      C        0.84241    0.70860    0.20200    1.000
    C29      C        0.84590    0.75390    0.12720    1.000
    H41      H        0.82490    0.79210    0.13790    1.000
    C30      C        0.87870    0.74550    0.03800    1.000
    H42      H        0.88080    0.77820    0.98870    1.000
    C31      C        0.90899    0.69050    0.01790    1.000
    C32      C        0.90410    0.64380    0.09230    1.000
    H43      H        0.92390    0.60510    0.08070    1.000
    C33      C        0.87150    0.65300    0.18140    1.000
    H44      H        0.86870    0.62020    0.23050    1.000
    C34      C        0.87092    0.58622    0.73680    1.000
    C35      C        0.85612    0.63069    0.82600    1.000
    H45      H        0.85880    0.60770    0.89320    1.000
    C36      C        0.79008    0.65700    0.81300    1.000
    H46      H        0.78720    0.69600    0.85340    1.000
    H47      H        0.78410    0.66790    0.73910    1.000
    C37      C        0.73750    0.61540    0.84560    1.000
    H48      H        0.74230    0.57520    0.80780    1.000
    C38      C        0.73730    0.60130    0.95940    1.000
    H49      H        0.70210    0.57410    0.97570    1.000
    H50      H        0.73340    0.64000    0.99870    1.000
    H51      H        0.77610    0.58050    0.97830    1.000
    C39      C        0.67660    0.64350    0.81250    1.000
    H52      H        0.64250    0.61630    0.83390    1.000
    H53      H        0.67610    0.64810    0.73690    1.000
    H54      H        0.67160    0.68420    0.84510    1.000
    C40      C        0.94370    0.68070    0.91750    1.000
    H55      H        0.97540    0.71350    0.90980    1.000
    H56      H        0.96530    0.64020    0.92000    1.000
    O8       O        0.84604    0.53472    0.73810    1.000
    C41      C        0.97580    0.83330    0.30350    1.000
    H57      H        0.94360    0.84910    0.25440    1.000
    C42      C        0.01080    0.78380    0.24180    1.000
    H58      H        0.03990    0.76220    0.28770    1.000
    H59      H        0.03370    0.80350    0.18510    1.000
    H60      H        0.98110    0.75390    0.21320    1.000
    C43      C        0.01900    0.88850    0.32070    1.000
    H61      H        0.99730    0.92050    0.36080    1.000
    H62      H        0.03160    0.90570    0.25350    1.000
    H63      H        0.05590    0.87490    0.35890    1.000
    C44      C        0.00660    0.81620    0.39350    1.000
    H64      H        0.02150    0.79440    0.45730    1.000
    C45      C        0.02940    0.88400    0.40300    1.000
    H65      H        0.01610    0.90760    0.34200    1.000
    H66      H        0.07480    0.88460    0.40750    1.000
    H67      H        0.01180    0.90280    0.46560    1.000
    C46      C        0.02900    0.77710    0.30170    1.000
    H68      H        0.00420    0.73900    0.29740    1.000
    H69      H        0.07270    0.76630    0.31150    1.000
    H70      H        0.02420    0.80080    0.23740    1.000
    Cu3      Cu       0.18686    0.55812    0.68584    1.000
    O9       O        0.23779    0.64595    0.56020    1.000
    O10      O        0.19828    0.55305    0.53160    1.000
    O11      O        0.10596    0.59439    0.66540    1.000
    N5       N        0.27102    0.66338    0.36520    1.000
    H71      H        0.30650    0.66320    0.32430    1.000
    N6       N        0.18182    0.59811    0.82610    1.000
    H72      H        0.21800    0.62130    0.83270    1.000
    C47      C        0.22817    0.59960    0.50210    1.000
    C48      C        0.25690    0.59797    0.39570    1.000
    H73      H        0.22700    0.57930    0.34520    1.000
    C49      C        0.31570    0.55970    0.39890    1.000
    C50      C        0.21950    0.69123    0.30380    1.000
    H74      H        0.22920    0.73530    0.28940    1.000
    H75      H        0.18090    0.69000    0.34550    1.000
    C51      C        0.20860    0.65759    0.20200    1.000
    C52      C        0.25390    0.65410    0.12720    1.000
    H76      H        0.29210    0.67510    0.13790    1.000
    C53      C        0.24550    0.62130    0.03800    1.000
    H77      H        0.27820    0.61920    0.98870    1.000
    C54      C        0.19050    0.59101    0.01790    1.000
    C55      C        0.14380    0.59590    0.09230    1.000
    H78      H        0.10510    0.57610    0.08070    1.000
    C56      C        0.15300    0.62850    0.18140    1.000
    H79      H        0.12020    0.63130    0.23050    1.000
    C57      C        0.08622    0.62908    0.73680    1.000
    C58      C        0.13069    0.64388    0.82600    1.000
    H80      H        0.10770    0.64120    0.89320    1.000
    C59      C        0.15700    0.70992    0.81300    1.000
    H81      H        0.19600    0.71280    0.85340    1.000
    H82      H        0.16790    0.71590    0.73910    1.000
    C60      C        0.11540    0.76250    0.84560    1.000
    H83      H        0.07520    0.75770    0.80780    1.000
    C61      C        0.10130    0.76270    0.95940    1.000
    H84      H        0.07410    0.79790    0.97570    1.000
    H85      H        0.14000    0.76660    0.99870    1.000
    H86      H        0.08050    0.72390    0.97830    1.000
    C62      C        0.14350    0.82340    0.81250    1.000
    H87      H        0.11630    0.85750    0.83390    1.000
    H88      H        0.14810    0.82390    0.73690    1.000
    H89      H        0.18420    0.82840    0.84510    1.000
    C63      C        0.18070    0.55630    0.91750    1.000
    H90      H        0.21350    0.52460    0.90980    1.000
    H91      H        0.14020    0.53470    0.92000    1.000
    O12      O        0.03472    0.65396    0.73810    1.000
    C64      C        0.33330    0.52420    0.30350    1.000
    H92      H        0.34910    0.55640    0.25440    1.000
    C65      C        0.28380    0.48920    0.24180    1.000
    H93      H        0.26220    0.46010    0.28770    1.000
    H94      H        0.30350    0.46630    0.18510    1.000
    H95      H        0.25390    0.51890    0.21320    1.000
    C66      C        0.38850    0.48100    0.32070    1.000
    H96      H        0.42050    0.50270    0.36080    1.000
    H97      H        0.40570    0.46840    0.25350    1.000
    H98      H        0.37490    0.44410    0.35890    1.000
    C67      C        0.31620    0.49340    0.39350    1.000
    H99      H        0.29440    0.47850    0.45730    1.000
    C68      C        0.38400    0.47060    0.40300    1.000
    H100     H        0.40760    0.48390    0.34200    1.000
    H101     H        0.38460    0.42520    0.40750    1.000
    H102     H        0.40280    0.48820    0.46560    1.000
    C69      C        0.27710    0.47100    0.30170    1.000
    H103     H        0.23900    0.49580    0.29740    1.000
    H104     H        0.26630    0.42730    0.31150    1.000
    H105     H        0.30080    0.47580    0.23740    1.000
    Cu4      Cu       0.81314    0.44188    0.68584    1.000
    O13      O        0.76221    0.35405    0.56020    1.000
    O14      O        0.80172    0.44695    0.53160    1.000
    O15      O        0.89404    0.40561    0.66540    1.000
    N7       N        0.72898    0.33662    0.36520    1.000
    H106     H        0.69350    0.33680    0.32430    1.000
    N8       N        0.81818    0.40189    0.82610    1.000
    H107     H        0.78200    0.37870    0.83270    1.000
    C70      C        0.77183    0.40040    0.50210    1.000
    C71      C        0.74310    0.40203    0.39570    1.000
    H108     H        0.77300    0.42070    0.34520    1.000
    C72      C        0.68430    0.44030    0.39890    1.000
    C73      C        0.78050    0.30877    0.30380    1.000
    H109     H        0.77080    0.26470    0.28940    1.000
    H110     H        0.81910    0.31000    0.34550    1.000
    C74      C        0.79140    0.34241    0.20200    1.000
    C75      C        0.74610    0.34590    0.12720    1.000
    H111     H        0.70790    0.32490    0.13790    1.000
    C76      C        0.75450    0.37870    0.03800    1.000
    H112     H        0.72180    0.38080    0.98870    1.000
    C77      C        0.80950    0.40899    0.01790    1.000
    C78      C        0.85620    0.40410    0.09230    1.000
    H113     H        0.89490    0.42390    0.08070    1.000
    C79      C        0.84700    0.37150    0.18140    1.000
    H114     H        0.87980    0.36870    0.23050    1.000
    C80      C        0.91378    0.37092    0.73680    1.000
    C81      C        0.86931    0.35612    0.82600    1.000
    H115     H        0.89230    0.35880    0.89320    1.000
    C82      C        0.84300    0.29008    0.81300    1.000
    H116     H        0.80400    0.28720    0.85340    1.000
    H117     H        0.83210    0.28410    0.73910    1.000
    C83      C        0.88460    0.23750    0.84560    1.000
    H118     H        0.92480    0.24230    0.80780    1.000
    C84      C        0.89870    0.23730    0.95940    1.000
    H119     H        0.92590    0.20210    0.97570    1.000
    H120     H        0.86000    0.23340    0.99870    1.000
    H121     H        0.91950    0.27610    0.97830    1.000
    C85      C        0.85650    0.17660    0.81250    1.000
    H122     H        0.88370    0.14250    0.83390    1.000
    H123     H        0.85190    0.17610    0.73690    1.000
    H124     H        0.81580    0.17160    0.84510    1.000
    C86      C        0.81930    0.44370    0.91750    1.000
    H125     H        0.78650    0.47540    0.90980    1.000
    H126     H        0.85980    0.46530    0.92000    1.000
    O16      O        0.96528    0.34604    0.73810    1.000
    C87      C        0.66670    0.47580    0.30350    1.000
    H127     H        0.65090    0.44360    0.25440    1.000
    C88      C        0.71620    0.51080    0.24180    1.000
    H128     H        0.73780    0.53990    0.28770    1.000
    H129     H        0.69650    0.53370    0.18510    1.000
    H130     H        0.74610    0.48110    0.21320    1.000
    C89      C        0.61150    0.51900    0.32070    1.000
    H131     H        0.57950    0.49730    0.36080    1.000
    H132     H        0.59430    0.53160    0.25350    1.000
    H133     H        0.62510    0.55590    0.35890    1.000
    C90      C        0.68380    0.50660    0.39350    1.000
    H134     H        0.70560    0.52150    0.45730    1.000
    C91      C        0.61600    0.52940    0.40300    1.000
    H135     H        0.59240    0.51610    0.34200    1.000
    H136     H        0.61540    0.57480    0.40750    1.000
    H137     H        0.59720    0.51180    0.46560    1.000
    C92      C        0.72290    0.52900    0.30170    1.000
    H138     H        0.76100    0.50420    0.29740    1.000
    H139     H        0.73370    0.57270    0.31150    1.000
    H140     H        0.69920    0.52420    0.23740    1.000
    Cu5      Cu       0.44188    0.81314    0.31416    1.000
    O17      O        0.35405    0.76221    0.43980    1.000
    O18      O        0.44695    0.80172    0.46840    1.000
    O19      O        0.40561    0.89404    0.33460    1.000
    N9       N        0.33662    0.72898    0.63480    1.000
    H141     H        0.33680    0.69350    0.67570    1.000
    N10      N        0.40189    0.81818    0.17390    1.000
    H142     H        0.37870    0.78200    0.16730    1.000
    C93      C        0.40040    0.77183    0.49790    1.000
    C94      C        0.40203    0.74310    0.60430    1.000
    H143     H        0.42070    0.77300    0.65480    1.000
    C95      C        0.44030    0.68430    0.60110    1.000
    C96      C        0.30877    0.78050    0.69620    1.000
    H144     H        0.26470    0.77080    0.71060    1.000
    H145     H        0.31000    0.81910    0.65450    1.000
    C97      C        0.34241    0.79140    0.79800    1.000
    C98      C        0.34590    0.74610    0.87280    1.000
    H146     H        0.32490    0.70790    0.86210    1.000
    C99      C        0.37870    0.75450    0.96200    1.000
    H147     H        0.38080    0.72180    0.01130    1.000
    C100     C        0.40899    0.80950    0.98210    1.000
    C101     C        0.40410    0.85620    0.90770    1.000
    H148     H        0.42390    0.89490    0.91930    1.000
    C102     C        0.37150    0.84700    0.81860    1.000
    H149     H        0.36870    0.87980    0.76950    1.000
    C103     C        0.37092    0.91378    0.26320    1.000
    C104     C        0.35612    0.86931    0.17400    1.000
    H150     H        0.35880    0.89230    0.10680    1.000
    C105     C        0.29008    0.84300    0.18700    1.000
    H151     H        0.28720    0.80400    0.14660    1.000
    H152     H        0.28410    0.83210    0.26090    1.000
    C106     C        0.23750    0.88460    0.15440    1.000
    H153     H        0.24230    0.92480    0.19220    1.000
    C107     C        0.23730    0.89870    0.04060    1.000
    H154     H        0.20210    0.92590    0.02430    1.000
    H155     H        0.23340    0.86000    0.00130    1.000
    H156     H        0.27610    0.91950    0.02170    1.000
    C108     C        0.17660    0.85650    0.18750    1.000
    H157     H        0.14250    0.88370    0.16610    1.000
    H158     H        0.17610    0.85190    0.26310    1.000
    H159     H        0.17160    0.81580    0.15490    1.000
    C109     C        0.44370    0.81930    0.08250    1.000
    H160     H        0.47540    0.78650    0.09020    1.000
    H161     H        0.46530    0.85980    0.08000    1.000
    O20      O        0.34604    0.96528    0.26190    1.000
    C110     C        0.47580    0.66670    0.69650    1.000
    H162     H        0.44360    0.65090    0.74560    1.000
    C111     C        0.51080    0.71620    0.75820    1.000
    H163     H        0.53990    0.73780    0.71230    1.000
    H164     H        0.53370    0.69650    0.81490    1.000
    H165     H        0.48110    0.74610    0.78680    1.000
    C112     C        0.51900    0.61150    0.67930    1.000
    H166     H        0.49730    0.57950    0.63920    1.000
    H167     H        0.53160    0.59430    0.74650    1.000
    H168     H        0.55590    0.62510    0.64110    1.000
    C113     C        0.50660    0.68380    0.60650    1.000
    H169     H        0.52150    0.70560    0.54270    1.000
    C114     C        0.52940    0.61600    0.59700    1.000
    H170     H        0.51610    0.59240    0.65800    1.000
    H171     H        0.57480    0.61540    0.59250    1.000
    H172     H        0.51180    0.59720    0.53440    1.000
    C115     C        0.52900    0.72290    0.69830    1.000
    H173     H        0.50420    0.76100    0.70260    1.000
    H174     H        0.57270    0.73370    0.68850    1.000
    H175     H        0.52420    0.69920    0.76260    1.000
    Cu6      Cu       0.55812    0.18686    0.31416    1.000
    O21      O        0.64595    0.23779    0.43980    1.000
    O22      O        0.55305    0.19828    0.46840    1.000
    O23      O        0.59439    0.10596    0.33460    1.000
    N11      N        0.66338    0.27102    0.63480    1.000
    H176     H        0.66320    0.30650    0.67570    1.000
    N12      N        0.59811    0.18182    0.17390    1.000
    H177     H        0.62130    0.21800    0.16730    1.000
    C116     C        0.59960    0.22817    0.49790    1.000
    C117     C        0.59797    0.25690    0.60430    1.000
    H178     H        0.57930    0.22700    0.65480    1.000
    C118     C        0.55970    0.31570    0.60110    1.000
    C119     C        0.69123    0.21950    0.69620    1.000
    H179     H        0.73530    0.22920    0.71060    1.000
    H180     H        0.69000    0.18090    0.65450    1.000
    C120     C        0.65759    0.20860    0.79800    1.000
    C121     C        0.65410    0.25390    0.87280    1.000
    H181     H        0.67510    0.29210    0.86210    1.000
    C122     C        0.62130    0.24550    0.96200    1.000
    H182     H        0.61920    0.27820    0.01130    1.000
    C123     C        0.59101    0.19050    0.98210    1.000
    C124     C        0.59590    0.14380    0.90770    1.000
    H183     H        0.57610    0.10510    0.91930    1.000
    C125     C        0.62850    0.15300    0.81860    1.000
    H184     H        0.63130    0.12020    0.76950    1.000
    C126     C        0.62908    0.08622    0.26320    1.000
    C127     C        0.64388    0.13069    0.17400    1.000
    H185     H        0.64120    0.10770    0.10680    1.000
    C128     C        0.70992    0.15700    0.18700    1.000
    H186     H        0.71280    0.19600    0.14660    1.000
    H187     H        0.71590    0.16790    0.26090    1.000
    C129     C        0.76250    0.11540    0.15440    1.000
    H188     H        0.75770    0.07520    0.19220    1.000
    C130     C        0.76270    0.10130    0.04060    1.000
    H189     H        0.79790    0.07410    0.02430    1.000
    H190     H        0.76660    0.14000    0.00130    1.000
    H191     H        0.72390    0.08050    0.02170    1.000
    C131     C        0.82340    0.14350    0.18750    1.000
    H192     H        0.85750    0.11630    0.16610    1.000
    H193     H        0.82390    0.14810    0.26310    1.000
    H194     H        0.82840    0.18420    0.15490    1.000
    C132     C        0.55630    0.18070    0.08250    1.000
    H195     H        0.52460    0.21350    0.09020    1.000
    H196     H        0.53470    0.14020    0.08000    1.000
    O24      O        0.65396    0.03472    0.26190    1.000
    C133     C        0.52420    0.33330    0.69650    1.000
    H197     H        0.55640    0.34910    0.74560    1.000
    C134     C        0.48920    0.28380    0.75820    1.000
    H198     H        0.46010    0.26220    0.71230    1.000
    H199     H        0.46630    0.30350    0.81490    1.000
    H200     H        0.51890    0.25390    0.78680    1.000
    C135     C        0.48100    0.38850    0.67930    1.000
    H201     H        0.50270    0.42050    0.63920    1.000
    H202     H        0.46840    0.40570    0.74650    1.000
    H203     H        0.44410    0.37490    0.64110    1.000
    C136     C        0.49340    0.31620    0.60650    1.000
    H204     H        0.47850    0.29440    0.54270    1.000
    C137     C        0.47060    0.38400    0.59700    1.000
    H205     H        0.48390    0.40760    0.65800    1.000
    H206     H        0.42520    0.38460    0.59250    1.000
    H207     H        0.48820    0.40280    0.53440    1.000
    C138     C        0.47100    0.27710    0.69830    1.000
    H208     H        0.49580    0.23900    0.70260    1.000
    H209     H        0.42730    0.26630    0.68850    1.000
    H210     H        0.47580    0.30080    0.76260    1.000
    Cu7      Cu       0.31314    0.05812    0.31416    1.000
    O25      O        0.26221    0.14595    0.43980    1.000
    O26      O        0.30172    0.05305    0.46840    1.000
    O27      O        0.39404    0.09439    0.33460    1.000
    N13      N        0.22898    0.16338    0.63480    1.000
    H211     H        0.19350    0.16320    0.67570    1.000
    N14      N        0.31818    0.09811    0.17390    1.000
    H212     H        0.28200    0.12130    0.16730    1.000
    C139     C        0.27183    0.09960    0.49790    1.000
    C140     C        0.24310    0.09797    0.60430    1.000
    H213     H        0.27300    0.07930    0.65480    1.000
    C141     C        0.18430    0.05970    0.60110    1.000
    C142     C        0.28050    0.19123    0.69620    1.000
    H214     H        0.27080    0.23530    0.71060    1.000
    H215     H        0.31910    0.19000    0.65450    1.000
    C143     C        0.29140    0.15759    0.79800    1.000
    C144     C        0.24610    0.15410    0.87280    1.000
    H216     H        0.20790    0.17510    0.86210    1.000
    C145     C        0.25450    0.12130    0.96200    1.000
    H217     H        0.22180    0.11920    0.01130    1.000
    C146     C        0.30950    0.09101    0.98210    1.000
    C147     C        0.35620    0.09590    0.90770    1.000
    H218     H        0.39490    0.07610    0.91930    1.000
    C148     C        0.34700    0.12850    0.81860    1.000
    H219     H        0.37980    0.13130    0.76950    1.000
    C149     C        0.41378    0.12908    0.26320    1.000
    C150     C        0.36931    0.14388    0.17400    1.000
    H220     H        0.39230    0.14120    0.10680    1.000
    C151     C        0.34300    0.20992    0.18700    1.000
    H221     H        0.30400    0.21280    0.14660    1.000
    H222     H        0.33210    0.21590    0.26090    1.000
    C152     C        0.38460    0.26250    0.15440    1.000
    H223     H        0.42480    0.25770    0.19220    1.000
    C153     C        0.39870    0.26270    0.04060    1.000
    H224     H        0.42590    0.29790    0.02430    1.000
    H225     H        0.36000    0.26660    0.00130    1.000
    H226     H        0.41950    0.22390    0.02170    1.000
    C154     C        0.35650    0.32340    0.18750    1.000
    H227     H        0.38370    0.35750    0.16610    1.000
    H228     H        0.35190    0.32390    0.26310    1.000
    H229     H        0.31580    0.32840    0.15490    1.000
    C155     C        0.31930    0.05630    0.08250    1.000
    H230     H        0.28650    0.02460    0.09020    1.000
    H231     H        0.35980    0.03470    0.08000    1.000
    O28      O        0.46528    0.15396    0.26190    1.000
    C156     C        0.16670    0.02420    0.69650    1.000
    H232     H        0.15090    0.05640    0.74560    1.000
    C157     C        0.21620    0.98920    0.75820    1.000
    H233     H        0.23780    0.96010    0.71230    1.000
    H234     H        0.19650    0.96630    0.81490    1.000
    H235     H        0.24610    0.01890    0.78680    1.000
    C158     C        0.11150    0.98100    0.67930    1.000
    H236     H        0.07950    0.00270    0.63920    1.000
    H237     H        0.09430    0.96840    0.74650    1.000
    H238     H        0.12510    0.94410    0.64110    1.000
    C159     C        0.18380    0.99340    0.60650    1.000
    H239     H        0.20560    0.97850    0.54270    1.000
    C160     C        0.11600    0.97060    0.59700    1.000
    H240     H        0.09240    0.98390    0.65800    1.000
    H241     H        0.11540    0.92520    0.59250    1.000
    H242     H        0.09720    0.98820    0.53440    1.000
    C161     C        0.22290    0.97100    0.69830    1.000
    H243     H        0.26100    0.99580    0.70260    1.000
    H244     H        0.23370    0.92730    0.68850    1.000
    H245     H        0.19920    0.97580    0.76260    1.000
    Cu8      Cu       0.68686    0.94188    0.31416    1.000
    O29      O        0.73779    0.85405    0.43980    1.000
    O30      O        0.69828    0.94695    0.46840    1.000
    O31      O        0.60596    0.90561    0.33460    1.000
    N15      N        0.77102    0.83662    0.63480    1.000
    H246     H        0.80650    0.83680    0.67570    1.000
    N16      N        0.68182    0.90189    0.17390    1.000
    H247     H        0.71800    0.87870    0.16730    1.000
    C162     C        0.72817    0.90040    0.49790    1.000
    C163     C        0.75690    0.90203    0.60430    1.000
    H248     H        0.72700    0.92070    0.65480    1.000
    C164     C        0.81570    0.94030    0.60110    1.000
    C165     C        0.71950    0.80877    0.69620    1.000
    H249     H        0.72920    0.76470    0.71060    1.000
    H250     H        0.68090    0.81000    0.65450    1.000
    C166     C        0.70860    0.84241    0.79800    1.000
    C167     C        0.75390    0.84590    0.87280    1.000
    H251     H        0.79210    0.82490    0.86210    1.000
    C168     C        0.74550    0.87870    0.96200    1.000
    H252     H        0.77820    0.88080    0.01130    1.000
    C169     C        0.69050    0.90899    0.98210    1.000
    C170     C        0.64380    0.90410    0.90770    1.000
    H253     H        0.60510    0.92390    0.91930    1.000
    C171     C        0.65300    0.87150    0.81860    1.000
    H254     H        0.62020    0.86870    0.76950    1.000
    C172     C        0.58622    0.87092    0.26320    1.000
    C173     C        0.63069    0.85612    0.17400    1.000
    H255     H        0.60770    0.85880    0.10680    1.000
    C174     C        0.65700    0.79008    0.18700    1.000
    H256     H        0.69600    0.78720    0.14660    1.000
    H257     H        0.66790    0.78410    0.26090    1.000
    C175     C        0.61540    0.73750    0.15440    1.000
    H258     H        0.57520    0.74230    0.19220    1.000
    C176     C        0.60130    0.73730    0.04060    1.000
    H259     H        0.57410    0.70210    0.02430    1.000
    H260     H        0.64000    0.73340    0.00130    1.000
    H261     H        0.58050    0.77610    0.02170    1.000
    C177     C        0.64350    0.67660    0.18750    1.000
    H262     H        0.61630    0.64250    0.16610    1.000
    H263     H        0.64810    0.67610    0.26310    1.000
    H264     H        0.68420    0.67160    0.15490    1.000
    C178     C        0.68070    0.94370    0.08250    1.000
    H265     H        0.71350    0.97540    0.09020    1.000
    H266     H        0.64020    0.96530    0.08000    1.000
    O32      O        0.53472    0.84604    0.26190    1.000
    C179     C        0.83330    0.97580    0.69650    1.000
    H267     H        0.84910    0.94360    0.74560    1.000
    C180     C        0.78380    0.01080    0.75820    1.000
    H268     H        0.76220    0.03990    0.71230    1.000
    H269     H        0.80350    0.03370    0.81490    1.000
    H270     H        0.75390    0.98110    0.78680    1.000
    C181     C        0.88850    0.01900    0.67930    1.000
    H271     H        0.92050    0.99730    0.63920    1.000
    H272     H        0.90570    0.03160    0.74650    1.000
    H273     H        0.87490    0.05590    0.64110    1.000
    C182     C        0.81620    0.00660    0.60650    1.000
    H274     H        0.79440    0.02150    0.54270    1.000
    C183     C        0.88400    0.02940    0.59700    1.000
    H275     H        0.90760    0.01610    0.65800    1.000
    H276     H        0.88460    0.07480    0.59250    1.000
    H277     H        0.90280    0.01180    0.53440    1.000
    C184     C        0.77710    0.02900    0.69830    1.000
    H278     H        0.73900    0.00420    0.70260    1.000
    H279     H        0.76630    0.07270    0.68850    1.000
    H280     H        0.80080    0.02420    0.76260    1.000
    Cu9      Cu       0.20947    0.20947    0.50000    1.000
    Cu10     Cu       0.79053    0.79053    0.50000    1.000
    Cu11     Cu       0.29053    0.70947    0.50000    1.000
    Cu12     Cu       0.70947    0.29053    0.50000    1.000
