# CIF file generated by openbabel 3.1.0, see https://openbabel.org
data_I
_chemical_name_common 'image0'
_cell_length_a 10.094
_cell_length_b 13.699
_cell_length_c 13.723
_cell_angle_alpha 90
_cell_angle_beta 107.92
_cell_angle_gamma 90
_space_group_name_H-M_alt 'P 1'
_space_group_name_Hall 'P 1'
loop_
    _symmetry_equiv_pos_as_xyz
    x,y,z
loop_
    _atom_site_label
    _atom_site_type_symbol
    _atom_site_fract_x
    _atom_site_fract_y
    _atom_site_fract_z
    _atom_site_occupancy
    Cd1      Cd       0.67340    0.55723    0.08155    1.000
    O1       O        0.85290    0.45630    0.21810    1.000
    O2       O        0.62730    0.42920    0.17800    1.000
    O3       O        0.60450    0.05970    0.45570    1.000
    O4       O        0.45520    0.14930    0.33730    1.000
    O5       O        0.16650    0.18210    0.36050    1.000
    O6       O        0.11800    0.07670    0.46700    1.000
    C1       C        0.75240    0.40550    0.22380    1.000
    C2       C        0.57820    0.12500    0.38700    1.000
    C3       C        0.08420    0.14730    0.40510    1.000
    C4       C        0.83260    0.14150    0.40170    1.000
    H1       H        0.85110    0.08580    0.44240    1.000
    C5       C        0.94100    0.18980    0.37870    1.000
    C6       C        0.91330    0.27710    0.32410    1.000
    H2       H        0.98620    0.31140    0.31200    1.000
    C7       C        0.77990    0.31350    0.28760    1.000
    C8       C        0.67070    0.26150    0.30550    1.000
    H3       H        0.57980    0.28380    0.27820    1.000
    C9       C        0.69690    0.17640    0.36390    1.000
    Cd2      Cd       0.32660    0.05723    0.41845    1.000
    O7       O        0.14710    0.95630    0.28190    1.000
    O8       O        0.37270    0.92920    0.32200    1.000
    O9       O        0.39550    0.55970    0.04430    1.000
    O10      O        0.54480    0.64930    0.16270    1.000
    O11      O        0.83350    0.68210    0.13950    1.000
    O12      O        0.88200    0.57670    0.03300    1.000
    C10      C        0.24760    0.90550    0.27620    1.000
    C11      C        0.42180    0.62500    0.11300    1.000
    C12      C        0.91580    0.64730    0.09490    1.000
    C13      C        0.16740    0.64150    0.09830    1.000
    H4       H        0.14890    0.58580    0.05760    1.000
    C14      C        0.05900    0.68980    0.12130    1.000
    C15      C        0.08670    0.77710    0.17590    1.000
    H5       H        0.01380    0.81140    0.18800    1.000
    C16      C        0.22010    0.81350    0.21240    1.000
    C17      C        0.32930    0.76150    0.19450    1.000
    H6       H        0.42020    0.78380    0.22180    1.000
    C18      C        0.30310    0.67640    0.13610    1.000
    Cd3      Cd       0.32660    0.44277    0.91845    1.000
    O13      O        0.14710    0.54370    0.78190    1.000
    O14      O        0.37270    0.57080    0.82200    1.000
    O15      O        0.39550    0.94030    0.54430    1.000
    O16      O        0.54480    0.85070    0.66270    1.000
    O17      O        0.83350    0.81790    0.63950    1.000
    O18      O        0.88200    0.92330    0.53300    1.000
    C19      C        0.24760    0.59450    0.77620    1.000
    C20      C        0.42180    0.87500    0.61300    1.000
    C21      C        0.91580    0.85270    0.59490    1.000
    C22      C        0.16740    0.85850    0.59830    1.000
    H7       H        0.14890    0.91420    0.55760    1.000
    C23      C        0.05900    0.81020    0.62130    1.000
    C24      C        0.08670    0.72290    0.67590    1.000
    H8       H        0.01380    0.68860    0.68800    1.000
    C25      C        0.22010    0.68650    0.71240    1.000
    C26      C        0.32930    0.73850    0.69450    1.000
    H9       H        0.42020    0.71620    0.72180    1.000
    C27      C        0.30310    0.82360    0.63610    1.000
    Cd4      Cd       0.67340    0.94277    0.58155    1.000
    O19      O        0.85290    0.04370    0.71810    1.000
    O20      O        0.62730    0.07080    0.67800    1.000
    O21      O        0.60450    0.44030    0.95570    1.000
    O22      O        0.45520    0.35070    0.83730    1.000
    O23      O        0.16650    0.31790    0.86050    1.000
    O24      O        0.11800    0.42330    0.96700    1.000
    C28      C        0.75240    0.09450    0.72380    1.000
    C29      C        0.57820    0.37500    0.88700    1.000
    C30      C        0.08420    0.35270    0.90510    1.000
    C31      C        0.83260    0.35850    0.90170    1.000
    H10      H        0.85110    0.41420    0.94240    1.000
    C32      C        0.94100    0.31020    0.87870    1.000
    C33      C        0.91330    0.22290    0.82410    1.000
    H11      H        0.98620    0.18860    0.81200    1.000
    C34      C        0.77990    0.18650    0.78760    1.000
    C35      C        0.67070    0.23850    0.80550    1.000
    H12      H        0.57980    0.21620    0.77820    1.000
    C36      C        0.69690    0.32360    0.86390    1.000
