# CIF file generated by openbabel 3.1.0, see https://openbabel.org
data_I
_chemical_name_common 'image0'
_cell_length_a 21.719
_cell_length_b 19.469
_cell_length_c 20.835
_cell_angle_alpha 90
_cell_angle_beta 108.856
_cell_angle_gamma 90
_space_group_name_H-M_alt 'P 1'
_space_group_name_Hall 'P 1'
loop_
    _symmetry_equiv_pos_as_xyz
    x,y,z
loop_
    _atom_site_label
    _atom_site_type_symbol
    _atom_site_fract_x
    _atom_site_fract_y
    _atom_site_fract_z
    _atom_site_occupancy
    Zn1      Zn       0.73716    0.72601    0.71030    1.000
    Zn2      Zn       0.72787    0.22757    0.93465    1.000
    Zn3      Zn       0.25809    0.80337    0.62482    1.000
    O1       O        0.65776    0.73900    0.63270    1.000
    C1       C        0.77090    0.33760    0.88810    1.000
    N1       N        0.79240    0.19750    0.02300    1.000
    N2       N        0.79770    0.76410    0.66390    1.000
    N3       N        0.87330    0.18770    0.12170    1.000
    C2       C        0.84820    0.22050    0.06140    1.000
    N4       N        0.87870    0.79890    0.62580    1.000
    O2       O        0.73440    0.63040    0.73480    1.000
    C3       C        0.60010    0.73090    0.63220    1.000
    C4       C        0.73720    0.05650    0.77080    1.000
    O3       O        0.81870    0.30030    0.89870    1.000
    C5       C        0.54900    0.72950    0.56350    1.000
    C6       C        0.77060    0.07050    0.01530    1.000
    C7       C        0.78670    0.60950    0.78120    1.000
    C8       C        0.82870    0.13170    0.12790    1.000
    H1       H        0.81090    0.14060    0.16420    1.000
    H2       H        0.85030    0.08730    0.13520    1.000
    C9       C        0.74440    0.99700    0.72760    1.000
    C10      C        0.78140    0.53740    0.80630    1.000
    C11      C        0.94180    0.80510    0.62620    1.000
    H3       H        0.95080    0.83150    0.59310    1.000
    C12      C        0.83680    0.50670    0.85060    1.000
    H4       H        0.87640    0.52980    0.86280    1.000
    C13      C        0.68410    0.06080    0.79240    1.000
    H5       H        0.65040    0.02910    0.77790    1.000
    C14      C        0.76030    0.88400    0.65170    1.000
    C15      C        0.86000    0.75820    0.67210    1.000
    C16      C        0.77580    0.13600    0.05730    1.000
    H6       H        0.73370    0.14430    0.06390    1.000
    O4       O        0.58530    0.71730    0.68230    1.000
    C17      C        0.91020    0.72220    0.71870    1.000
    H7       H        0.90080    0.69210    0.74890    1.000
    C18      C        0.94340    0.29160    0.09590    1.000
    H8       H        0.96920    0.32590    0.08670    1.000
    C19      C        0.82000    0.05140    0.99210    1.000
    H9       H        0.85770    0.07780    0.00310    1.000
    C20      C        0.69070    0.96630    0.68130    1.000
    H10      H        0.64920    0.98330    0.67520    1.000
    C21      C        0.77400    0.40750    0.85950    1.000
    C22      C        0.83320    0.44260    0.87640    1.000
    H11      H        0.87060    0.42220    0.90540    1.000
    C23      C        0.71500    0.03130    0.99910    1.000
    H12      H        0.68070    0.04400    0.01420    1.000
    C24      C        0.71790    0.43780    0.81640    1.000
    H13      H        0.67800    0.41560    0.80610    1.000
    C25      C        0.69940    0.90940    0.64370    1.000
    H14      H        0.66330    0.88860    0.61300    1.000
    C26      C        0.80640    0.97120    0.73460    1.000
    H15      H        0.84300    0.99130    0.76520    1.000
    C27      C        0.93060    0.20310    0.16820    1.000
    H16      H        0.94530    0.17730    0.20780    1.000
    C28      C        0.97350    0.73080    0.72060    1.000
    H17      H        0.00660    0.70790    0.75350    1.000
    C29      C        0.81270    0.91700    0.69680    1.000
    H18      H        0.85430    0.90110    0.70150    1.000
    C30      C        0.96720    0.25560    0.15820    1.000
    C31      C        0.76980    0.82010    0.61400    1.000
    H19      H        0.72820    0.80550    0.58150    1.000
    O5       O        0.83500    0.64500    0.80640    1.000
    C32      C        0.98970    0.77430    0.67280    1.000
    C33      C        0.72290    0.50340    0.78850    1.000
    H20      H        0.68630    0.52350    0.75780    1.000
    C34      C        0.82080    0.83020    0.57760    1.000
    H21      H        0.80820    0.80680    0.53420    1.000
    H22      H        0.82770    0.87860    0.57070    1.000
    C35      C        0.78470    0.10640    0.79280    1.000
    H23      H        0.82020    0.10730    0.77720    1.000
    O6       O        0.72020    0.32190    0.89830    1.000
    O7       O        0.25130    0.88600    0.57110    1.000
    C36      C        0.56420    0.73000    0.50650    1.000
    H24      H        0.60760    0.73260    0.50900    1.000
    O8       O        0.26530    0.94580    0.66030    1.000
    C37      C        0.48360    0.72670    0.55660    1.000
    H25      H        0.47130    0.72240    0.59520    1.000
    C38      C        0.25750    0.00410    0.55610    1.000
    C39      C        0.25660    0.93880    0.59890    1.000
    C40      C        0.24500    0.06510    0.57730    1.000
    H26      H        0.23970    0.06860    0.61970    1.000
    C41      C        0.88500    0.27830    0.04940    1.000
    H27      H        0.86900    0.30540    0.01080    1.000
    C42      C        0.26380    0.99720    0.49330    1.000
    H28      H        0.27110    0.95420    0.47760    1.000
    C43      C        0.24950    0.11790    0.47650    1.000
    C44      C        0.23970    0.12360    0.53840    1.000
    H29      H        0.22970    0.16580    0.55360    1.000
    C45      C        0.25950    0.05270    0.45450    1.000
    H30      H        0.26340    0.04770    0.41160    1.000
    C46      C        0.07400    0.84510    0.64690    1.000
    H31      H        0.04380    0.88040    0.63290    1.000
    C47      C        0.13490    0.85150    0.63900    1.000
    H32      H        0.14540    0.89110    0.61980    1.000
    N5       N        0.18016    0.79870    0.65980    1.000
    C48      C        0.16450    0.73960    0.68850    1.000
    H33      H        0.19470    0.70430    0.70240    1.000
    C49      C        0.10360    0.73320    0.69640    1.000
    H34      H        0.09310    0.69360    0.71560    1.000
    C50      C        0.05840    0.78590    0.67560    1.000
    C51      C        0.10580    0.26280    0.32430    1.000
    H35      H        0.11470    0.24810    0.36890    1.000
    N6       N        0.15383    0.29540    0.30470    1.000
    C52      C        0.14060    0.31740    0.23810    1.000
    H36      H        0.17270    0.33910    0.22500    1.000
    C53      C        0.07920    0.30680    0.19110    1.000
    H37      H        0.07030    0.32150    0.14660    1.000
    C54      C        0.03119    0.27420    0.21070    1.000
    C55      C        0.04450    0.25220    0.27730    1.000
    H38      H        0.01230    0.23040    0.29040    1.000
    C56      C        0.75940    0.95210    0.93500    1.000
    C57      C        0.75340    0.89290    0.88810    1.000
    C58      C        0.81490    0.99360    0.95240    1.000
    H39      H        0.84920    0.98190    0.93690    1.000
    C59      C        0.71050    0.97130    0.95930    1.000
    H40      H        0.67320    0.94430    0.94930    1.000
    C60      C        0.68990    0.82380    0.79520    1.000
    H41      H        0.64920    0.81260    0.76490    1.000
    C61      C        0.79810    0.80560    0.83770    1.000
    H42      H        0.83500    0.78180    0.83690    1.000
    C62      C        0.68160    0.11370    0.83650    1.000
    H43      H        0.64480    0.11700    0.85000    1.000
    C63      C        0.69340    0.87540    0.84260    1.000
    H44      H        0.65590    0.89780    0.84360    1.000
    C64      C        0.80480    0.85420    0.88570    1.000
    H45      H        0.84550    0.86140    0.91780    1.000
    C65      C        0.77820    0.15400    0.83770    1.000
    H46      H        0.81190    0.18550    0.85390    1.000
    N7       N        0.74060    0.79010    0.79080    1.000
    N8       N        0.72850    0.15930    0.86030    1.000
    O9       O        0.65210    0.21190    0.96310    1.000
    O10      O        0.57570    0.21200    0.86680    1.000
    C66      C        0.54520    0.20820    0.96580    1.000
    C67      C        0.59430    0.20910    0.92680    1.000
    C68      C        0.47990    0.21010    0.93260    1.000
    H47      H        0.46540    0.21370    0.88550    1.000
    C69      C        0.56530    0.20700    0.03440    1.000
    H48      H        0.60940    0.20410    0.05890    1.000
    O11      O        0.25780    0.73540    0.55140    1.000
    C70      C        0.25410    0.68150    0.57430    1.000
    O12      O        0.26190    0.66420    0.63430    1.000
    Zn4      Zn       0.23716    0.22601    0.71030    1.000
    Zn5      Zn       0.22787    0.72757    0.93465    1.000
    Zn6      Zn       0.75809    0.30337    0.62482    1.000
    O13      O        0.15776    0.23900    0.63270    1.000
    C71      C        0.27090    0.83760    0.88810    1.000
    N9       N        0.29240    0.69750    0.02300    1.000
    N10      N        0.29770    0.26410    0.66390    1.000
    N11      N        0.37330    0.68770    0.12170    1.000
    C72      C        0.34820    0.72050    0.06140    1.000
    N12      N        0.37870    0.29890    0.62580    1.000
    O14      O        0.23440    0.13040    0.73480    1.000
    C73      C        0.10010    0.23090    0.63220    1.000
    C74      C        0.23720    0.55650    0.77080    1.000
    O15      O        0.31870    0.80030    0.89870    1.000
    C75      C        0.04900    0.22950    0.56350    1.000
    C76      C        0.27060    0.57050    0.01530    1.000
    C77      C        0.28670    0.10950    0.78120    1.000
    C78      C        0.32870    0.63170    0.12790    1.000
    H49      H        0.31090    0.64060    0.16420    1.000
    H50      H        0.35030    0.58730    0.13520    1.000
    C79      C        0.24440    0.49700    0.72760    1.000
    C80      C        0.28140    0.03740    0.80630    1.000
    C81      C        0.44180    0.30510    0.62620    1.000
    H51      H        0.45080    0.33150    0.59310    1.000
    C82      C        0.33680    0.00670    0.85060    1.000
    H52      H        0.37640    0.02980    0.86280    1.000
    C83      C        0.18410    0.56080    0.79240    1.000
    H53      H        0.15040    0.52910    0.77790    1.000
    C84      C        0.26030    0.38400    0.65170    1.000
    C85      C        0.36000    0.25820    0.67210    1.000
    C86      C        0.27580    0.63600    0.05730    1.000
    H54      H        0.23370    0.64430    0.06390    1.000
    O16      O        0.08530    0.21730    0.68230    1.000
    C87      C        0.41020    0.22220    0.71870    1.000
    H55      H        0.40080    0.19210    0.74890    1.000
    C88      C        0.44340    0.79160    0.09590    1.000
    H56      H        0.46920    0.82590    0.08670    1.000
    C89      C        0.32000    0.55140    0.99210    1.000
    H57      H        0.35770    0.57780    0.00310    1.000
    C90      C        0.19070    0.46630    0.68130    1.000
    H58      H        0.14920    0.48330    0.67520    1.000
    C91      C        0.27400    0.90750    0.85950    1.000
    C92      C        0.33320    0.94260    0.87640    1.000
    H59      H        0.37060    0.92220    0.90540    1.000
    C93      C        0.21500    0.53130    0.99910    1.000
    H60      H        0.18070    0.54400    0.01420    1.000
    C94      C        0.21790    0.93780    0.81640    1.000
    H61      H        0.17800    0.91560    0.80610    1.000
    C95      C        0.19940    0.40940    0.64370    1.000
    H62      H        0.16330    0.38860    0.61300    1.000
    C96      C        0.30640    0.47120    0.73460    1.000
    H63      H        0.34300    0.49130    0.76520    1.000
    C97      C        0.43060    0.70310    0.16820    1.000
    H64      H        0.44530    0.67730    0.20780    1.000
    C98      C        0.47350    0.23080    0.72060    1.000
    H65      H        0.50660    0.20790    0.75350    1.000
    C99      C        0.31270    0.41700    0.69680    1.000
    H66      H        0.35430    0.40110    0.70150    1.000
    C100     C        0.46720    0.75560    0.15820    1.000
    C101     C        0.26980    0.32010    0.61400    1.000
    H67      H        0.22820    0.30550    0.58150    1.000
    O17      O        0.33500    0.14500    0.80640    1.000
    C102     C        0.48970    0.27430    0.67280    1.000
    C103     C        0.22290    0.00340    0.78850    1.000
    H68      H        0.18630    0.02350    0.75780    1.000
    C104     C        0.32080    0.33020    0.57760    1.000
    H69      H        0.30820    0.30680    0.53420    1.000
    H70      H        0.32770    0.37860    0.57070    1.000
    C105     C        0.28470    0.60640    0.79280    1.000
    H71      H        0.32020    0.60730    0.77720    1.000
    O18      O        0.22020    0.82190    0.89830    1.000
    O19      O        0.75130    0.38600    0.57110    1.000
    C106     C        0.06420    0.23000    0.50650    1.000
    H72      H        0.10760    0.23260    0.50900    1.000
    O20      O        0.76530    0.44580    0.66030    1.000
    C107     C        0.98360    0.22670    0.55660    1.000
    H73      H        0.97130    0.22240    0.59520    1.000
    C108     C        0.75750    0.50410    0.55610    1.000
    C109     C        0.75660    0.43880    0.59890    1.000
    C110     C        0.74500    0.56510    0.57730    1.000
    H74      H        0.73970    0.56860    0.61970    1.000
    C111     C        0.38500    0.77830    0.04940    1.000
    H75      H        0.36900    0.80540    0.01080    1.000
    C112     C        0.76380    0.49720    0.49330    1.000
    H76      H        0.77110    0.45420    0.47760    1.000
    C113     C        0.74950    0.61790    0.47650    1.000
    C114     C        0.73970    0.62360    0.53840    1.000
    H77      H        0.72970    0.66580    0.55360    1.000
    C115     C        0.75950    0.55270    0.45450    1.000
    H78      H        0.76340    0.54770    0.41160    1.000
    C116     C        0.57400    0.34510    0.64690    1.000
    H79      H        0.54380    0.38040    0.63290    1.000
    C117     C        0.63490    0.35150    0.63900    1.000
    H80      H        0.64540    0.39110    0.61980    1.000
    N13      N        0.68016    0.29870    0.65980    1.000
    C118     C        0.66450    0.23960    0.68850    1.000
    H81      H        0.69470    0.20430    0.70240    1.000
    C119     C        0.60360    0.23320    0.69640    1.000
    H82      H        0.59310    0.19360    0.71560    1.000
    C120     C        0.55840    0.28590    0.67560    1.000
    C121     C        0.60580    0.76280    0.32430    1.000
    H83      H        0.61470    0.74810    0.36890    1.000
    N14      N        0.65383    0.79540    0.30470    1.000
    C122     C        0.64060    0.81740    0.23810    1.000
    H84      H        0.67270    0.83910    0.22500    1.000
    C123     C        0.57920    0.80680    0.19110    1.000
    H85      H        0.57030    0.82150    0.14660    1.000
    C124     C        0.53119    0.77420    0.21070    1.000
    C125     C        0.54450    0.75220    0.27730    1.000
    H86      H        0.51230    0.73040    0.29040    1.000
    C126     C        0.25940    0.45210    0.93500    1.000
    C127     C        0.25340    0.39290    0.88810    1.000
    C128     C        0.31490    0.49360    0.95240    1.000
    H87      H        0.34920    0.48190    0.93690    1.000
    C129     C        0.21050    0.47130    0.95930    1.000
    H88      H        0.17320    0.44430    0.94930    1.000
    C130     C        0.18990    0.32380    0.79520    1.000
    H89      H        0.14920    0.31260    0.76490    1.000
    C131     C        0.29810    0.30560    0.83770    1.000
    H90      H        0.33500    0.28180    0.83690    1.000
    C132     C        0.18160    0.61370    0.83650    1.000
    H91      H        0.14480    0.61700    0.85000    1.000
    C133     C        0.19340    0.37540    0.84260    1.000
    H92      H        0.15590    0.39780    0.84360    1.000
    C134     C        0.30480    0.35420    0.88570    1.000
    H93      H        0.34550    0.36140    0.91780    1.000
    C135     C        0.27820    0.65400    0.83770    1.000
    H94      H        0.31190    0.68550    0.85390    1.000
    N15      N        0.24060    0.29010    0.79080    1.000
    N16      N        0.22850    0.65930    0.86030    1.000
    O21      O        0.15210    0.71190    0.96310    1.000
    O22      O        0.07570    0.71200    0.86680    1.000
    C136     C        0.04520    0.70820    0.96580    1.000
    C137     C        0.09430    0.70910    0.92680    1.000
    C138     C        0.97990    0.71010    0.93260    1.000
    H95      H        0.96540    0.71370    0.88550    1.000
    C139     C        0.06530    0.70700    0.03440    1.000
    H96      H        0.10940    0.70410    0.05890    1.000
    O23      O        0.75780    0.23540    0.55140    1.000
    C140     C        0.75410    0.18150    0.57430    1.000
    O24      O        0.76190    0.16420    0.63430    1.000
    Zn7      Zn       0.26284    0.72601    0.28970    1.000
    Zn8      Zn       0.27213    0.22757    0.06535    1.000
    Zn9      Zn       0.74191    0.80337    0.37518    1.000
    O25      O        0.34224    0.73900    0.36730    1.000
    C141     C        0.22910    0.33760    0.11190    1.000
    N17      N        0.20760    0.19750    0.97700    1.000
    N18      N        0.20230    0.76410    0.33610    1.000
    N19      N        0.12670    0.18770    0.87830    1.000
    C142     C        0.15180    0.22050    0.93860    1.000
    N20      N        0.12130    0.79890    0.37420    1.000
    O26      O        0.26560    0.63040    0.26520    1.000
    C143     C        0.39990    0.73090    0.36780    1.000
    C144     C        0.26280    0.05650    0.22920    1.000
    O27      O        0.18130    0.30030    0.10130    1.000
    C145     C        0.45100    0.72950    0.43650    1.000
    C146     C        0.22940    0.07050    0.98470    1.000
    C147     C        0.21330    0.60950    0.21880    1.000
    C148     C        0.17130    0.13170    0.87210    1.000
    H97      H        0.18910    0.14060    0.83580    1.000
    H98      H        0.14970    0.08730    0.86480    1.000
    C149     C        0.25560    0.99700    0.27240    1.000
    C150     C        0.21860    0.53740    0.19370    1.000
    C151     C        0.05820    0.80510    0.37380    1.000
    H99      H        0.04920    0.83150    0.40690    1.000
    C152     C        0.16320    0.50670    0.14940    1.000
    H100     H        0.12360    0.52980    0.13720    1.000
    C153     C        0.31590    0.06080    0.20760    1.000
    H101     H        0.34960    0.02910    0.22210    1.000
    C154     C        0.23970    0.88400    0.34830    1.000
    C155     C        0.14000    0.75820    0.32790    1.000
    C156     C        0.22420    0.13600    0.94270    1.000
    H102     H        0.26630    0.14430    0.93610    1.000
    O28      O        0.41470    0.71730    0.31770    1.000
    C157     C        0.08980    0.72220    0.28130    1.000
    H103     H        0.09920    0.69210    0.25110    1.000
    C158     C        0.05660    0.29160    0.90410    1.000
    H104     H        0.03080    0.32590    0.91330    1.000
    C159     C        0.18000    0.05140    0.00790    1.000
    H105     H        0.14230    0.07780    0.99690    1.000
    C160     C        0.30930    0.96630    0.31870    1.000
    H106     H        0.35080    0.98330    0.32480    1.000
    C161     C        0.22600    0.40750    0.14050    1.000
    C162     C        0.16680    0.44260    0.12360    1.000
    H107     H        0.12940    0.42220    0.09460    1.000
    C163     C        0.28500    0.03130    0.00090    1.000
    H108     H        0.31930    0.04400    0.98580    1.000
    C164     C        0.28210    0.43780    0.18360    1.000
    H109     H        0.32200    0.41560    0.19390    1.000
    C165     C        0.30060    0.90940    0.35630    1.000
    H110     H        0.33670    0.88860    0.38700    1.000
    C166     C        0.19360    0.97120    0.26540    1.000
    H111     H        0.15700    0.99130    0.23480    1.000
    C167     C        0.06940    0.20310    0.83180    1.000
    H112     H        0.05470    0.17730    0.79220    1.000
    C168     C        0.02650    0.73080    0.27940    1.000
    H113     H        0.99340    0.70790    0.24650    1.000
    C169     C        0.18730    0.91700    0.30320    1.000
    H114     H        0.14570    0.90110    0.29850    1.000
    C170     C        0.03280    0.25560    0.84180    1.000
    C171     C        0.23020    0.82010    0.38600    1.000
    H115     H        0.27180    0.80550    0.41850    1.000
    O29      O        0.16500    0.64500    0.19360    1.000
    C172     C        0.01030    0.77430    0.32720    1.000
    C173     C        0.27710    0.50340    0.21150    1.000
    H116     H        0.31370    0.52350    0.24220    1.000
    C174     C        0.17920    0.83020    0.42240    1.000
    H117     H        0.19180    0.80680    0.46580    1.000
    H118     H        0.17230    0.87860    0.42930    1.000
    C175     C        0.21530    0.10640    0.20720    1.000
    H119     H        0.17980    0.10730    0.22280    1.000
    O30      O        0.27980    0.32190    0.10170    1.000
    O31      O        0.74870    0.88600    0.42890    1.000
    C176     C        0.43580    0.73000    0.49350    1.000
    H120     H        0.39240    0.73260    0.49100    1.000
    O32      O        0.73470    0.94580    0.33970    1.000
    C177     C        0.51640    0.72670    0.44340    1.000
    H121     H        0.52870    0.72240    0.40480    1.000
    C178     C        0.74250    0.00410    0.44390    1.000
    C179     C        0.74340    0.93880    0.40110    1.000
    C180     C        0.75500    0.06510    0.42270    1.000
    H122     H        0.76030    0.06860    0.38030    1.000
    C181     C        0.11500    0.27830    0.95060    1.000
    H123     H        0.13100    0.30540    0.98920    1.000
    C182     C        0.73620    0.99720    0.50670    1.000
    H124     H        0.72890    0.95420    0.52240    1.000
    C183     C        0.75050    0.11790    0.52350    1.000
    C184     C        0.76030    0.12360    0.46160    1.000
    H125     H        0.77030    0.16580    0.44640    1.000
    C185     C        0.74050    0.05270    0.54550    1.000
    H126     H        0.73660    0.04770    0.58840    1.000
    C186     C        0.92600    0.84510    0.35310    1.000
    H127     H        0.95620    0.88040    0.36710    1.000
    C187     C        0.86510    0.85150    0.36100    1.000
    H128     H        0.85460    0.89110    0.38020    1.000
    N21      N        0.81984    0.79870    0.34020    1.000
    C188     C        0.83550    0.73960    0.31150    1.000
    H129     H        0.80530    0.70430    0.29760    1.000
    C189     C        0.89640    0.73320    0.30360    1.000
    H130     H        0.90690    0.69360    0.28440    1.000
    C190     C        0.94160    0.78590    0.32440    1.000
    C191     C        0.89420    0.26280    0.67570    1.000
    H131     H        0.88530    0.24810    0.63110    1.000
    N22      N        0.84617    0.29540    0.69530    1.000
    C192     C        0.85940    0.31740    0.76190    1.000
    H132     H        0.82730    0.33910    0.77500    1.000
    C193     C        0.92080    0.30680    0.80890    1.000
    H133     H        0.92970    0.32150    0.85340    1.000
    C194     C        0.96881    0.27420    0.78930    1.000
    C195     C        0.95550    0.25220    0.72270    1.000
    H134     H        0.98770    0.23040    0.70960    1.000
    C196     C        0.24060    0.95210    0.06500    1.000
    C197     C        0.24660    0.89290    0.11190    1.000
    C198     C        0.18510    0.99360    0.04760    1.000
    H135     H        0.15080    0.98190    0.06310    1.000
    C199     C        0.28950    0.97130    0.04070    1.000
    H136     H        0.32680    0.94430    0.05070    1.000
    C200     C        0.31010    0.82380    0.20480    1.000
    H137     H        0.35080    0.81260    0.23510    1.000
    C201     C        0.20190    0.80560    0.16230    1.000
    H138     H        0.16500    0.78180    0.16310    1.000
    C202     C        0.31840    0.11370    0.16350    1.000
    H139     H        0.35520    0.11700    0.15000    1.000
    C203     C        0.30660    0.87540    0.15740    1.000
    H140     H        0.34410    0.89780    0.15640    1.000
    C204     C        0.19520    0.85420    0.11430    1.000
    H141     H        0.15450    0.86140    0.08220    1.000
    C205     C        0.22180    0.15400    0.16230    1.000
    H142     H        0.18810    0.18550    0.14610    1.000
    N23      N        0.25940    0.79010    0.20920    1.000
    N24      N        0.27150    0.15930    0.13970    1.000
    O33      O        0.34790    0.21190    0.03690    1.000
    O34      O        0.42430    0.21200    0.13320    1.000
    C206     C        0.45480    0.20820    0.03420    1.000
    C207     C        0.40570    0.20910    0.07320    1.000
    C208     C        0.52010    0.21010    0.06740    1.000
    H143     H        0.53460    0.21370    0.11450    1.000
    C209     C        0.43470    0.20700    0.96560    1.000
    H144     H        0.39060    0.20410    0.94110    1.000
    O35      O        0.74220    0.73540    0.44860    1.000
    C210     C        0.74590    0.68150    0.42570    1.000
    O36      O        0.73810    0.66420    0.36570    1.000
    Zn10     Zn       0.76284    0.22601    0.28970    1.000
    Zn11     Zn       0.77213    0.72757    0.06535    1.000
    Zn12     Zn       0.24191    0.30337    0.37518    1.000
    O37      O        0.84224    0.23900    0.36730    1.000
    C211     C        0.72910    0.83760    0.11190    1.000
    N25      N        0.70760    0.69750    0.97700    1.000
    N26      N        0.70230    0.26410    0.33610    1.000
    N27      N        0.62670    0.68770    0.87830    1.000
    C212     C        0.65180    0.72050    0.93860    1.000
    N28      N        0.62130    0.29890    0.37420    1.000
    O38      O        0.76560    0.13040    0.26520    1.000
    C213     C        0.89990    0.23090    0.36780    1.000
    C214     C        0.76280    0.55650    0.22920    1.000
    O39      O        0.68130    0.80030    0.10130    1.000
    C215     C        0.95100    0.22950    0.43650    1.000
    C216     C        0.72940    0.57050    0.98470    1.000
    C217     C        0.71330    0.10950    0.21880    1.000
    C218     C        0.67130    0.63170    0.87210    1.000
    H145     H        0.68910    0.64060    0.83580    1.000
    H146     H        0.64970    0.58730    0.86480    1.000
    C219     C        0.75560    0.49700    0.27240    1.000
    C220     C        0.71860    0.03740    0.19370    1.000
    C221     C        0.55820    0.30510    0.37380    1.000
    H147     H        0.54920    0.33150    0.40690    1.000
    C222     C        0.66320    0.00670    0.14940    1.000
    H148     H        0.62360    0.02980    0.13720    1.000
    C223     C        0.81590    0.56080    0.20760    1.000
    H149     H        0.84960    0.52910    0.22210    1.000
    C224     C        0.73970    0.38400    0.34830    1.000
    C225     C        0.64000    0.25820    0.32790    1.000
    C226     C        0.72420    0.63600    0.94270    1.000
    H150     H        0.76630    0.64430    0.93610    1.000
    O40      O        0.91470    0.21730    0.31770    1.000
    C227     C        0.58980    0.22220    0.28130    1.000
    H151     H        0.59920    0.19210    0.25110    1.000
    C228     C        0.55660    0.79160    0.90410    1.000
    H152     H        0.53080    0.82590    0.91330    1.000
    C229     C        0.68000    0.55140    0.00790    1.000
    H153     H        0.64230    0.57780    0.99690    1.000
    C230     C        0.80930    0.46630    0.31870    1.000
    H154     H        0.85080    0.48330    0.32480    1.000
    C231     C        0.72600    0.90750    0.14050    1.000
    C232     C        0.66680    0.94260    0.12360    1.000
    H155     H        0.62940    0.92220    0.09460    1.000
    C233     C        0.78500    0.53130    0.00090    1.000
    H156     H        0.81930    0.54400    0.98580    1.000
    C234     C        0.78210    0.93780    0.18360    1.000
    H157     H        0.82200    0.91560    0.19390    1.000
    C235     C        0.80060    0.40940    0.35630    1.000
    H158     H        0.83670    0.38860    0.38700    1.000
    C236     C        0.69360    0.47120    0.26540    1.000
    H159     H        0.65700    0.49130    0.23480    1.000
    C237     C        0.56940    0.70310    0.83180    1.000
    H160     H        0.55470    0.67730    0.79220    1.000
    C238     C        0.52650    0.23080    0.27940    1.000
    H161     H        0.49340    0.20790    0.24650    1.000
    C239     C        0.68730    0.41700    0.30320    1.000
    H162     H        0.64570    0.40110    0.29850    1.000
    C240     C        0.53280    0.75560    0.84180    1.000
    C241     C        0.73020    0.32010    0.38600    1.000
    H163     H        0.77180    0.30550    0.41850    1.000
    O41      O        0.66500    0.14500    0.19360    1.000
    C242     C        0.51030    0.27430    0.32720    1.000
    C243     C        0.77710    0.00340    0.21150    1.000
    H164     H        0.81370    0.02350    0.24220    1.000
    C244     C        0.67920    0.33020    0.42240    1.000
    H165     H        0.69180    0.30680    0.46580    1.000
    H166     H        0.67230    0.37860    0.42930    1.000
    C245     C        0.71530    0.60640    0.20720    1.000
    H167     H        0.67980    0.60730    0.22280    1.000
    O42      O        0.77980    0.82190    0.10170    1.000
    O43      O        0.24870    0.38600    0.42890    1.000
    C246     C        0.93580    0.23000    0.49350    1.000
    H168     H        0.89240    0.23260    0.49100    1.000
    O44      O        0.23470    0.44580    0.33970    1.000
    C247     C        0.01640    0.22670    0.44340    1.000
    H169     H        0.02870    0.22240    0.40480    1.000
    C248     C        0.24250    0.50410    0.44390    1.000
    C249     C        0.24340    0.43880    0.40110    1.000
    C250     C        0.25500    0.56510    0.42270    1.000
    H170     H        0.26030    0.56860    0.38030    1.000
    C251     C        0.61500    0.77830    0.95060    1.000
    H171     H        0.63100    0.80540    0.98920    1.000
    C252     C        0.23620    0.49720    0.50670    1.000
    H172     H        0.22890    0.45420    0.52240    1.000
    C253     C        0.25050    0.61790    0.52350    1.000
    C254     C        0.26030    0.62360    0.46160    1.000
    H173     H        0.27030    0.66580    0.44640    1.000
    C255     C        0.24050    0.55270    0.54550    1.000
    H174     H        0.23660    0.54770    0.58840    1.000
    C256     C        0.42600    0.34510    0.35310    1.000
    H175     H        0.45620    0.38040    0.36710    1.000
    C257     C        0.36510    0.35150    0.36100    1.000
    H176     H        0.35460    0.39110    0.38020    1.000
    N29      N        0.31984    0.29870    0.34020    1.000
    C258     C        0.33550    0.23960    0.31150    1.000
    H177     H        0.30530    0.20430    0.29760    1.000
    C259     C        0.39640    0.23320    0.30360    1.000
    H178     H        0.40690    0.19360    0.28440    1.000
    C260     C        0.44160    0.28590    0.32440    1.000
    C261     C        0.39420    0.76280    0.67570    1.000
    H179     H        0.38530    0.74810    0.63110    1.000
    N30      N        0.34617    0.79540    0.69530    1.000
    C262     C        0.35940    0.81740    0.76190    1.000
    H180     H        0.32730    0.83910    0.77500    1.000
    C263     C        0.42080    0.80680    0.80890    1.000
    H181     H        0.42970    0.82150    0.85340    1.000
    C264     C        0.46881    0.77420    0.78930    1.000
    C265     C        0.45550    0.75220    0.72270    1.000
    H182     H        0.48770    0.73040    0.70960    1.000
    C266     C        0.74060    0.45210    0.06500    1.000
    C267     C        0.74660    0.39290    0.11190    1.000
    C268     C        0.68510    0.49360    0.04760    1.000
    H183     H        0.65080    0.48190    0.06310    1.000
    C269     C        0.78950    0.47130    0.04070    1.000
    H184     H        0.82680    0.44430    0.05070    1.000
    C270     C        0.81010    0.32380    0.20480    1.000
    H185     H        0.85080    0.31260    0.23510    1.000
    C271     C        0.70190    0.30560    0.16230    1.000
    H186     H        0.66500    0.28180    0.16310    1.000
    C272     C        0.81840    0.61370    0.16350    1.000
    H187     H        0.85520    0.61700    0.15000    1.000
    C273     C        0.80660    0.37540    0.15740    1.000
    H188     H        0.84410    0.39780    0.15640    1.000
    C274     C        0.69520    0.35420    0.11430    1.000
    H189     H        0.65450    0.36140    0.08220    1.000
    C275     C        0.72180    0.65400    0.16230    1.000
    H190     H        0.68810    0.68550    0.14610    1.000
    N31      N        0.75940    0.29010    0.20920    1.000
    N32      N        0.77150    0.65930    0.13970    1.000
    O45      O        0.84790    0.71190    0.03690    1.000
    O46      O        0.92430    0.71200    0.13320    1.000
    C276     C        0.95480    0.70820    0.03420    1.000
    C277     C        0.90570    0.70910    0.07320    1.000
    C278     C        0.02010    0.71010    0.06740    1.000
    H191     H        0.03460    0.71370    0.11450    1.000
    C279     C        0.93470    0.70700    0.96560    1.000
    H192     H        0.89060    0.70410    0.94110    1.000
    O47      O        0.24220    0.23540    0.44860    1.000
    C280     C        0.24590    0.18150    0.42570    1.000
    O48      O        0.23810    0.16420    0.36570    1.000
