# CIF file generated by openbabel 3.1.0, see https://openbabel.org
data_I
_chemical_name_common 'image0'
_cell_length_a 7.1555
_cell_length_b 12.4238
_cell_length_c 11.7575
_cell_angle_alpha 90
_cell_angle_beta 91.782
_cell_angle_gamma 90
_space_group_name_H-M_alt 'P 1'
_space_group_name_Hall 'P 1'
loop_
    _symmetry_equiv_pos_as_xyz
    x,y,z
loop_
    _atom_site_label
    _atom_site_type_symbol
    _atom_site_fract_x
    _atom_site_fract_y
    _atom_site_fract_z
    _atom_site_occupancy
    O1       O        0.53130    0.07955    0.57876    1.000
    C1       C        0.54210    0.15726    0.65226    1.000
    N1       N        0.56750    0.32677    0.81497    1.000
    C2       C        0.45080    0.15355    0.75644    1.000
    H1       H        0.37900    0.09380    0.77420    1.000
    C3       C        0.64480    0.25154    0.63423    1.000
    H2       H        0.70700    0.26060    0.56660    1.000
    C4       C        0.65380    0.33004    0.71541    1.000
    H3       H        0.72540    0.39060    0.70050    1.000
    C5       C        0.46710    0.23741    0.83185    1.000
    H4       H        0.40400    0.23190    0.89960    1.000
    Li1      Li       0.60300    0.05250    0.42720    1.000
    O2       O        0.87330    0.01156    0.40659    1.000
    C6       C        0.01650    0.08898    0.43040    1.000
    H5       H        0.97400    0.15950    0.40560    1.000
    H6       H        0.12670    0.07080    0.38850    1.000
    C7       C        0.93450    0.90788    0.44540    1.000
    H7       H        0.04300    0.88580    0.40370    1.000
    H8       H        0.83610    0.85550    0.43100    1.000
    O3       O        0.46870    0.57955    0.92124    1.000
    C8       C        0.45790    0.65726    0.84774    1.000
    N2       N        0.43250    0.82677    0.68503    1.000
    C9       C        0.54920    0.65355    0.74356    1.000
    H9       H        0.62100    0.59380    0.72580    1.000
    C10      C        0.35520    0.75154    0.86577    1.000
    H10      H        0.29300    0.76060    0.93340    1.000
    C11      C        0.34620    0.83004    0.78459    1.000
    H11      H        0.27460    0.89060    0.79950    1.000
    C12      C        0.53290    0.73741    0.66815    1.000
    H12      H        0.59600    0.73190    0.60040    1.000
    Li2      Li       0.39700    0.55250    0.07280    1.000
    O4       O        0.12670    0.51156    0.09341    1.000
    C13      C        0.98350    0.58898    0.06960    1.000
    H13      H        0.02600    0.65950    0.09440    1.000
    H14      H        0.87330    0.57080    0.11150    1.000
    C14      C        0.06550    0.40788    0.05460    1.000
    H15      H        0.95700    0.38580    0.09630    1.000
    H16      H        0.16390    0.35550    0.06900    1.000
    O5       O        0.46870    0.92045    0.42124    1.000
    C15      C        0.45790    0.84274    0.34774    1.000
    N3       N        0.43250    0.67323    0.18503    1.000
    C16      C        0.54920    0.84645    0.24356    1.000
    H17      H        0.62100    0.90620    0.22580    1.000
    C17      C        0.35520    0.74846    0.36577    1.000
    H18      H        0.29300    0.73940    0.43340    1.000
    C18      C        0.34620    0.66996    0.28459    1.000
    H19      H        0.27460    0.60940    0.29950    1.000
    C19      C        0.53290    0.76259    0.16815    1.000
    H20      H        0.59600    0.76810    0.10040    1.000
    Li3      Li       0.39700    0.94750    0.57280    1.000
    O6       O        0.12670    0.98844    0.59341    1.000
    C20      C        0.98350    0.91102    0.56960    1.000
    H21      H        0.02600    0.84050    0.59440    1.000
    H22      H        0.87330    0.92920    0.61150    1.000
    C21      C        0.06550    0.09212    0.55460    1.000
    H23      H        0.95700    0.11420    0.59630    1.000
    H24      H        0.16390    0.14450    0.56900    1.000
    O7       O        0.53130    0.42045    0.07876    1.000
    C22      C        0.54210    0.34274    0.15226    1.000
    N4       N        0.56750    0.17323    0.31497    1.000
    C23      C        0.45080    0.34645    0.25644    1.000
    H25      H        0.37900    0.40620    0.27420    1.000
    C24      C        0.64480    0.24846    0.13423    1.000
    H26      H        0.70700    0.23940    0.06660    1.000
    C25      C        0.65380    0.16996    0.21541    1.000
    H27      H        0.72540    0.10940    0.20050    1.000
    C26      C        0.46710    0.26259    0.33185    1.000
    H28      H        0.40400    0.26810    0.39960    1.000
    Li4      Li       0.60300    0.44750    0.92720    1.000
    O8       O        0.87330    0.48844    0.90659    1.000
    C27      C        0.01650    0.41102    0.93040    1.000
    H29      H        0.97400    0.34050    0.90560    1.000
    H30      H        0.12670    0.42920    0.88850    1.000
    C28      C        0.93450    0.59212    0.94540    1.000
    H31      H        0.04300    0.61420    0.90370    1.000
    H32      H        0.83610    0.64450    0.93100    1.000
