# CIF file generated by openbabel 3.1.0, see https://openbabel.org
data_I
_chemical_name_common 'image0'
_cell_length_a 9.0008
_cell_length_b 27.8944
_cell_length_c 10.9798
_cell_angle_alpha 90
_cell_angle_beta 98.694
_cell_angle_gamma 90
_space_group_name_H-M_alt 'P 1'
_space_group_name_Hall 'P 1'
loop_
    _symmetry_equiv_pos_as_xyz
    x,y,z
loop_
    _atom_site_label
    _atom_site_type_symbol
    _atom_site_fract_x
    _atom_site_fract_y
    _atom_site_fract_z
    _atom_site_occupancy
    Mo1      Mo       0.41250    0.35110    0.62619    1.000
    C1       C        0.65830    0.47334    0.33740    1.000
    H1       H        0.74350    0.48705    0.38260    1.000
    C2       C        0.57240    0.50131    0.24910    1.000
    H2       H        0.59870    0.53307    0.23770    1.000
    C3       C        0.44630    0.48144    0.17760    1.000
    C4       C        0.41470    0.43385    0.20120    1.000
    H3       H        0.33250    0.41876    0.15540    1.000
    C5       C        0.50490    0.40911    0.29220    1.000
    H4       H        0.48020    0.37744    0.30660    1.000
    C6       C        0.34570    0.50964    0.08330    1.000
    C7       C        0.34950    0.55956    0.08520    1.000
    H5       H        0.41800    0.57559    0.14300    1.000
    C8       C        0.27900    0.66388    0.11090    1.000
    H6       H        0.29550    0.64732    0.18520    1.000
    C9       C        0.28320    0.71342    0.11060    1.000
    H7       H        0.30830    0.72996    0.18440    1.000
    N1       N        0.62640    0.42797    0.36160    1.000
    O1       O        0.16790    0.81507    0.91501    1.000
    O2       O        0.56680    0.38462    0.59370    1.000
    Mo2      Mo       0.91250    0.85110    0.12619    1.000
    C10      C        0.15830    0.97334    0.83740    1.000
    H8       H        0.24350    0.98705    0.88260    1.000
    C11      C        0.07240    0.00131    0.74910    1.000
    H9       H        0.09870    0.03307    0.73770    1.000
    C12      C        0.94630    0.98144    0.67760    1.000
    C13      C        0.91470    0.93385    0.70120    1.000
    H10      H        0.83250    0.91876    0.65540    1.000
    C14      C        0.00490    0.90911    0.79220    1.000
    H11      H        0.98020    0.87744    0.80660    1.000
    C15      C        0.84570    0.00964    0.58330    1.000
    C16      C        0.84950    0.05956    0.58520    1.000
    H12      H        0.91800    0.07559    0.64300    1.000
    C17      C        0.77900    0.16388    0.61090    1.000
    H13      H        0.79550    0.14732    0.68520    1.000
    C18      C        0.78320    0.21342    0.61060    1.000
    H14      H        0.80830    0.22996    0.68440    1.000
    N2       N        0.12640    0.92797    0.86160    1.000
    O3       O        0.66790    0.31507    0.41501    1.000
    O4       O        0.06680    0.88462    0.09370    1.000
    Mo3      Mo       0.08750    0.35110    0.37381    1.000
    C19      C        0.84170    0.47334    0.66260    1.000
    H15      H        0.75650    0.48705    0.61740    1.000
    C20      C        0.92760    0.50131    0.75090    1.000
    H16      H        0.90130    0.53307    0.76230    1.000
    C21      C        0.05370    0.48144    0.82240    1.000
    C22      C        0.08530    0.43385    0.79880    1.000
    H17      H        0.16750    0.41876    0.84460    1.000
    C23      C        0.99510    0.40911    0.70780    1.000
    H18      H        0.01980    0.37744    0.69340    1.000
    C24      C        0.15430    0.50964    0.91670    1.000
    C25      C        0.15050    0.55956    0.91480    1.000
    H19      H        0.08200    0.57559    0.85700    1.000
    C26      C        0.22100    0.66388    0.88910    1.000
    H20      H        0.20450    0.64732    0.81480    1.000
    C27      C        0.21680    0.71342    0.88940    1.000
    H21      H        0.19170    0.72996    0.81560    1.000
    N3       N        0.87360    0.42797    0.63840    1.000
    O5       O        0.33210    0.81507    0.08499    1.000
    O6       O        0.93320    0.38462    0.40630    1.000
    Mo4      Mo       0.58750    0.85110    0.87381    1.000
    C28      C        0.34170    0.97334    0.16260    1.000
    H22      H        0.25650    0.98705    0.11740    1.000
    C29      C        0.42760    0.00131    0.25090    1.000
    H23      H        0.40130    0.03307    0.26230    1.000
    C30      C        0.55370    0.98144    0.32240    1.000
    C31      C        0.58530    0.93385    0.29880    1.000
    H24      H        0.66750    0.91876    0.34460    1.000
    C32      C        0.49510    0.90911    0.20780    1.000
    H25      H        0.51980    0.87744    0.19340    1.000
    C33      C        0.65430    0.00964    0.41670    1.000
    C34      C        0.65050    0.05956    0.41480    1.000
    H26      H        0.58200    0.07559    0.35700    1.000
    C35      C        0.72100    0.16388    0.38910    1.000
    H27      H        0.70450    0.14732    0.31480    1.000
    C36      C        0.71680    0.21342    0.38940    1.000
    H28      H        0.69170    0.22996    0.31560    1.000
    N4       N        0.37360    0.92797    0.13840    1.000
    O7       O        0.83210    0.31507    0.58499    1.000
    O8       O        0.43320    0.88462    0.90630    1.000
    Co1      Co       0.75000    0.38332    0.50000    1.000
    Co2      Co       0.25000    0.88332    0.00000    1.000
    C37      C        0.25000    0.58532    0.00000    1.000
    C38      C        0.25000    0.63855    0.00000    1.000
    C39      C        0.25000    0.73880    0.00000    1.000
    C40      C        0.25000    0.79274    0.00000    1.000
    N5       N        0.25000    0.48461    0.00000    1.000
    C41      C        0.75000    0.08532    0.50000    1.000
    C42      C        0.75000    0.13855    0.50000    1.000
    C43      C        0.75000    0.23880    0.50000    1.000
    C44      C        0.75000    0.29274    0.50000    1.000
    N6       N        0.75000    0.98461    0.50000    1.000
    O9       O        0.25000    0.36112    0.50000    1.000
    O10      O        0.75000    0.86112    0.00000    1.000
    Mo5      Mo       0.58750    0.64890    0.37381    1.000
    C45      C        0.34170    0.52666    0.66260    1.000
    H29      H        0.25650    0.51295    0.61740    1.000
    C46      C        0.42760    0.49869    0.75090    1.000
    H30      H        0.40130    0.46693    0.76230    1.000
    C47      C        0.55370    0.51856    0.82240    1.000
    C48      C        0.58530    0.56615    0.79880    1.000
    H31      H        0.66750    0.58124    0.84460    1.000
    C49      C        0.49510    0.59089    0.70780    1.000
    H32      H        0.51980    0.62256    0.69340    1.000
    C50      C        0.65430    0.49036    0.91670    1.000
    C51      C        0.65050    0.44044    0.91480    1.000
    H33      H        0.58200    0.42441    0.85700    1.000
    C52      C        0.72100    0.33612    0.88910    1.000
    H34      H        0.70450    0.35268    0.81480    1.000
    C53      C        0.71680    0.28658    0.88940    1.000
    H35      H        0.69170    0.27004    0.81560    1.000
    N7       N        0.37360    0.57203    0.63840    1.000
    O11      O        0.83210    0.18493    0.08499    1.000
    O12      O        0.43320    0.61538    0.40630    1.000
    Mo6      Mo       0.08750    0.14890    0.87381    1.000
    C54      C        0.84170    0.02666    0.16260    1.000
    H36      H        0.75650    0.01295    0.11740    1.000
    C55      C        0.92760    0.99869    0.25090    1.000
    H37      H        0.90130    0.96693    0.26230    1.000
    C56      C        0.05370    0.01856    0.32240    1.000
    C57      C        0.08530    0.06615    0.29880    1.000
    H38      H        0.16750    0.08124    0.34460    1.000
    C58      C        0.99510    0.09089    0.20780    1.000
    H39      H        0.01980    0.12256    0.19340    1.000
    C59      C        0.15430    0.99036    0.41670    1.000
    C60      C        0.15050    0.94044    0.41480    1.000
    H40      H        0.08200    0.92441    0.35700    1.000
    C61      C        0.22100    0.83612    0.38910    1.000
    H41      H        0.20450    0.85268    0.31480    1.000
    C62      C        0.21680    0.78658    0.38940    1.000
    H42      H        0.19170    0.77004    0.31560    1.000
    N8       N        0.87360    0.07203    0.13840    1.000
    O13      O        0.33210    0.68493    0.58499    1.000
    O14      O        0.93320    0.11538    0.90630    1.000
    Mo7      Mo       0.91250    0.64890    0.62619    1.000
    C63      C        0.15830    0.52666    0.33740    1.000
    H43      H        0.24350    0.51295    0.38260    1.000
    C64      C        0.07240    0.49869    0.24910    1.000
    H44      H        0.09870    0.46693    0.23770    1.000
    C65      C        0.94630    0.51856    0.17760    1.000
    C66      C        0.91470    0.56615    0.20120    1.000
    H45      H        0.83250    0.58124    0.15540    1.000
    C67      C        0.00490    0.59089    0.29220    1.000
    H46      H        0.98020    0.62256    0.30660    1.000
    C68      C        0.84570    0.49036    0.08330    1.000
    C69      C        0.84950    0.44044    0.08520    1.000
    H47      H        0.91800    0.42441    0.14300    1.000
    C70      C        0.77900    0.33612    0.11090    1.000
    H48      H        0.79550    0.35268    0.18520    1.000
    C71      C        0.78320    0.28658    0.11060    1.000
    H49      H        0.80830    0.27004    0.18440    1.000
    N9       N        0.12640    0.57203    0.36160    1.000
    O15      O        0.66790    0.18493    0.91501    1.000
    O16      O        0.06680    0.61538    0.59370    1.000
    Mo8      Mo       0.41250    0.14890    0.12619    1.000
    C72      C        0.65830    0.02666    0.83740    1.000
    H50      H        0.74350    0.01295    0.88260    1.000
    C73      C        0.57240    0.99869    0.74910    1.000
    H51      H        0.59870    0.96693    0.73770    1.000
    C74      C        0.44630    0.01856    0.67760    1.000
    C75      C        0.41470    0.06615    0.70120    1.000
    H52      H        0.33250    0.08124    0.65540    1.000
    C76      C        0.50490    0.09089    0.79220    1.000
    H53      H        0.48020    0.12256    0.80660    1.000
    C77      C        0.34570    0.99036    0.58330    1.000
    C78      C        0.34950    0.94044    0.58520    1.000
    H54      H        0.41800    0.92441    0.64300    1.000
    C79      C        0.27900    0.83612    0.61090    1.000
    H55      H        0.29550    0.85268    0.68520    1.000
    C80      C        0.28320    0.78658    0.61060    1.000
    H56      H        0.30830    0.77004    0.68440    1.000
    N10      N        0.62640    0.07203    0.86160    1.000
    O17      O        0.16790    0.68493    0.41501    1.000
    O18      O        0.56680    0.11538    0.09370    1.000
    Co3      Co       0.25000    0.61668    0.50000    1.000
    Co4      Co       0.75000    0.11668    0.00000    1.000
    C81      C        0.75000    0.41468    0.00000    1.000
    C82      C        0.75000    0.36145    0.00000    1.000
    C83      C        0.75000    0.26120    0.00000    1.000
    C84      C        0.75000    0.20726    0.00000    1.000
    N11      N        0.75000    0.51539    0.00000    1.000
    C85      C        0.25000    0.91468    0.50000    1.000
    C86      C        0.25000    0.86145    0.50000    1.000
    C87      C        0.25000    0.76120    0.50000    1.000
    C88      C        0.25000    0.70726    0.50000    1.000
    N12      N        0.25000    0.01539    0.50000    1.000
    O19      O        0.75000    0.63888    0.50000    1.000
    O20      O        0.25000    0.13888    0.00000    1.000
