# CIF file generated by openbabel 3.1.0, see https://openbabel.org
data_I
_chemical_name_common 'image0'
_cell_length_a 22.5561
_cell_length_b 17.4368
_cell_length_c 10.1995
_cell_angle_alpha 90
_cell_angle_beta 109.402
_cell_angle_gamma 90
_space_group_name_H-M_alt 'P 1'
_space_group_name_Hall 'P 1'
loop_
    _symmetry_equiv_pos_as_xyz
    x,y,z
loop_
    _atom_site_label
    _atom_site_type_symbol
    _atom_site_fract_x
    _atom_site_fract_y
    _atom_site_fract_z
    _atom_site_occupancy
    Sr1      Sr       0.33828    0.10270    0.52899    1.000
    P1       P        0.47658    0.15600    0.45982    1.000
    P2       P        0.60911    0.08730    0.57917    1.000
    P3       P        0.19428    0.17905    0.59832    1.000
    P4       P        0.19190    0.01526    0.47234    1.000
    O1       O        0.45668    0.12889    0.57890    1.000
    O2       O        0.45797    0.10558    0.33290    1.000
    O3       O        0.44930    0.23979    0.41480    1.000
    H1       H        0.41450    0.24350    0.42340    1.000
    O4       O        0.60113    0.06688    0.71580    1.000
    O5       O        0.59407    0.02782    0.46730    1.000
    O6       O        0.67846    0.11579    0.60400    1.000
    H2       H        0.69270    0.13510    0.68150    1.000
    O7       O        0.25973    0.01137    0.55960    1.000
    O8       O        0.16331    0.25586    0.55260    1.000
    O9       O        0.20536    0.14282    0.35790    1.000
    H3       H        0.21350    0.19000    0.35600    1.000
    O10      O        0.17254    0.97965    0.32970    1.000
    O11      O        0.16537    0.14785    0.70820    1.000
    H4       H        0.17680    0.10350    0.72810    1.000
    O12      O        0.14908    0.97917    0.55150    1.000
    H5       H        0.16030    0.99520    0.63160    1.000
    O13      O        0.26522    0.18041    0.65290    1.000
    O14      O        0.57597    0.20595    0.39890    1.000
    H6       H        0.56550    0.17550    0.33400    1.000
    C1       C        0.56128    0.17413    0.51560    1.000
    C2       C        0.57783    0.23388    0.63230    1.000
    C3       C        0.16867    0.11680    0.44390    1.000
    C4       C        0.09789    0.12302    0.36770    1.000
    Sr2      Sr       0.83828    0.60270    0.52899    1.000
    P5       P        0.97658    0.65600    0.45982    1.000
    P6       P        0.10911    0.58730    0.57917    1.000
    P7       P        0.69428    0.67905    0.59832    1.000
    P8       P        0.69190    0.51526    0.47234    1.000
    O15      O        0.95668    0.62889    0.57890    1.000
    O16      O        0.95797    0.60558    0.33290    1.000
    O17      O        0.94930    0.73979    0.41480    1.000
    H7       H        0.91450    0.74350    0.42340    1.000
    O18      O        0.10113    0.56688    0.71580    1.000
    O19      O        0.09407    0.52782    0.46730    1.000
    O20      O        0.17846    0.61579    0.60400    1.000
    H8       H        0.19270    0.63510    0.68150    1.000
    O21      O        0.75973    0.51137    0.55960    1.000
    O22      O        0.66331    0.75586    0.55260    1.000
    O23      O        0.70536    0.64282    0.35790    1.000
    H9       H        0.71350    0.69000    0.35600    1.000
    O24      O        0.67254    0.47965    0.32970    1.000
    O25      O        0.66537    0.64785    0.70820    1.000
    H10      H        0.67680    0.60350    0.72810    1.000
    O26      O        0.64908    0.47917    0.55150    1.000
    H11      H        0.66030    0.49520    0.63160    1.000
    O27      O        0.76522    0.68041    0.65290    1.000
    O28      O        0.07597    0.70595    0.39890    1.000
    H12      H        0.06550    0.67550    0.33400    1.000
    C5       C        0.06128    0.67413    0.51560    1.000
    C6       C        0.07783    0.73388    0.63230    1.000
    C7       C        0.66867    0.61680    0.44390    1.000
    C8       C        0.59789    0.62302    0.36770    1.000
    Sr3      Sr       0.66172    0.10270    0.97101    1.000
    P9       P        0.52342    0.15600    0.04018    1.000
    P10      P        0.39089    0.08730    0.92083    1.000
    P11      P        0.80572    0.17905    0.90168    1.000
    P12      P        0.80810    0.01526    0.02766    1.000
    O29      O        0.54332    0.12889    0.92110    1.000
    O30      O        0.54203    0.10558    0.16710    1.000
    O31      O        0.55070    0.23979    0.08520    1.000
    H13      H        0.58550    0.24350    0.07660    1.000
    O32      O        0.39887    0.06688    0.78420    1.000
    O33      O        0.40593    0.02782    0.03270    1.000
    O34      O        0.32154    0.11579    0.89600    1.000
    H14      H        0.30730    0.13510    0.81850    1.000
    O35      O        0.74027    0.01137    0.94040    1.000
    O36      O        0.83669    0.25586    0.94740    1.000
    O37      O        0.79464    0.14282    0.14210    1.000
    H15      H        0.78650    0.19000    0.14400    1.000
    O38      O        0.82746    0.97965    0.17030    1.000
    O39      O        0.83463    0.14785    0.79180    1.000
    H16      H        0.82320    0.10350    0.77190    1.000
    O40      O        0.85092    0.97917    0.94850    1.000
    H17      H        0.83970    0.99520    0.86840    1.000
    O41      O        0.73478    0.18041    0.84710    1.000
    O42      O        0.42403    0.20595    0.10110    1.000
    H18      H        0.43450    0.17550    0.16600    1.000
    C9       C        0.43872    0.17413    0.98440    1.000
    C10      C        0.42217    0.23388    0.86770    1.000
    C11      C        0.83133    0.11680    0.05610    1.000
    C12      C        0.90211    0.12302    0.13230    1.000
    Sr4      Sr       0.16172    0.60270    0.97101    1.000
    P13      P        0.02342    0.65600    0.04018    1.000
    P14      P        0.89089    0.58730    0.92083    1.000
    P15      P        0.30572    0.67905    0.90168    1.000
    P16      P        0.30810    0.51526    0.02766    1.000
    O43      O        0.04332    0.62889    0.92110    1.000
    O44      O        0.04203    0.60558    0.16710    1.000
    O45      O        0.05070    0.73979    0.08520    1.000
    H19      H        0.08550    0.74350    0.07660    1.000
    O46      O        0.89887    0.56688    0.78420    1.000
    O47      O        0.90593    0.52782    0.03270    1.000
    O48      O        0.82154    0.61579    0.89600    1.000
    H20      H        0.80730    0.63510    0.81850    1.000
    O49      O        0.24027    0.51137    0.94040    1.000
    O50      O        0.33669    0.75586    0.94740    1.000
    O51      O        0.29464    0.64282    0.14210    1.000
    H21      H        0.28650    0.69000    0.14400    1.000
    O52      O        0.32746    0.47965    0.17030    1.000
    O53      O        0.33463    0.64785    0.79180    1.000
    H22      H        0.32320    0.60350    0.77190    1.000
    O54      O        0.35092    0.47917    0.94850    1.000
    H23      H        0.33970    0.49520    0.86840    1.000
    O55      O        0.23478    0.68041    0.84710    1.000
    O56      O        0.92403    0.70595    0.10110    1.000
    H24      H        0.93450    0.67550    0.16600    1.000
    C13      C        0.93872    0.67413    0.98440    1.000
    C14      C        0.92217    0.73388    0.86770    1.000
    C15      C        0.33133    0.61680    0.05610    1.000
    C16      C        0.40211    0.62302    0.13230    1.000
    Sr5      Sr       0.66172    0.89730    0.47101    1.000
    P17      P        0.52342    0.84400    0.54018    1.000
    P18      P        0.39089    0.91270    0.42083    1.000
    P19      P        0.80572    0.82095    0.40168    1.000
    P20      P        0.80810    0.98474    0.52766    1.000
    O57      O        0.54332    0.87111    0.42110    1.000
    O58      O        0.54203    0.89442    0.66710    1.000
    O59      O        0.55070    0.76021    0.58520    1.000
    H25      H        0.58550    0.75650    0.57660    1.000
    O60      O        0.39887    0.93312    0.28420    1.000
    O61      O        0.40593    0.97218    0.53270    1.000
    O62      O        0.32154    0.88421    0.39600    1.000
    H26      H        0.30730    0.86490    0.31850    1.000
    O63      O        0.74027    0.98863    0.44040    1.000
    O64      O        0.83669    0.74414    0.44740    1.000
    O65      O        0.79464    0.85718    0.64210    1.000
    H27      H        0.78650    0.81000    0.64400    1.000
    O66      O        0.82746    0.02035    0.67030    1.000
    O67      O        0.83463    0.85215    0.29180    1.000
    H28      H        0.82320    0.89650    0.27190    1.000
    O68      O        0.85092    0.02083    0.44850    1.000
    H29      H        0.83970    0.00480    0.36840    1.000
    O69      O        0.73478    0.81959    0.34710    1.000
    O70      O        0.42403    0.79405    0.60110    1.000
    H30      H        0.43450    0.82450    0.66600    1.000
    C17      C        0.43872    0.82587    0.48440    1.000
    C18      C        0.42217    0.76612    0.36770    1.000
    C19      C        0.83133    0.88320    0.55610    1.000
    C20      C        0.90211    0.87698    0.63230    1.000
    Sr6      Sr       0.16172    0.39730    0.47101    1.000
    P21      P        0.02342    0.34400    0.54018    1.000
    P22      P        0.89089    0.41270    0.42083    1.000
    P23      P        0.30572    0.32095    0.40168    1.000
    P24      P        0.30810    0.48474    0.52766    1.000
    O71      O        0.04332    0.37111    0.42110    1.000
    O72      O        0.04203    0.39442    0.66710    1.000
    O73      O        0.05070    0.26021    0.58520    1.000
    H31      H        0.08550    0.25650    0.57660    1.000
    O74      O        0.89887    0.43312    0.28420    1.000
    O75      O        0.90593    0.47218    0.53270    1.000
    O76      O        0.82154    0.38421    0.39600    1.000
    H32      H        0.80730    0.36490    0.31850    1.000
    O77      O        0.24027    0.48863    0.44040    1.000
    O78      O        0.33669    0.24414    0.44740    1.000
    O79      O        0.29464    0.35718    0.64210    1.000
    H33      H        0.28650    0.31000    0.64400    1.000
    O80      O        0.32746    0.52035    0.67030    1.000
    O81      O        0.33463    0.35215    0.29180    1.000
    H34      H        0.32320    0.39650    0.27190    1.000
    O82      O        0.35092    0.52083    0.44850    1.000
    H35      H        0.33970    0.50480    0.36840    1.000
    O83      O        0.23478    0.31959    0.34710    1.000
    O84      O        0.92403    0.29405    0.60110    1.000
    H36      H        0.93450    0.32450    0.66600    1.000
    C21      C        0.93872    0.32587    0.48440    1.000
    C22      C        0.92217    0.26612    0.36770    1.000
    C23      C        0.33133    0.38320    0.55610    1.000
    C24      C        0.40211    0.37698    0.63230    1.000
    Sr7      Sr       0.33828    0.89730    0.02899    1.000
    P25      P        0.47658    0.84400    0.95982    1.000
    P26      P        0.60911    0.91270    0.07917    1.000
    P27      P        0.19428    0.82095    0.09832    1.000
    P28      P        0.19190    0.98474    0.97234    1.000
    O85      O        0.45668    0.87111    0.07890    1.000
    O86      O        0.45797    0.89442    0.83290    1.000
    O87      O        0.44930    0.76021    0.91480    1.000
    H37      H        0.41450    0.75650    0.92340    1.000
    O88      O        0.60113    0.93312    0.21580    1.000
    O89      O        0.59407    0.97218    0.96730    1.000
    O90      O        0.67846    0.88421    0.10400    1.000
    H38      H        0.69270    0.86490    0.18150    1.000
    O91      O        0.25973    0.98863    0.05960    1.000
    O92      O        0.16331    0.74414    0.05260    1.000
    O93      O        0.20536    0.85718    0.85790    1.000
    H39      H        0.21350    0.81000    0.85600    1.000
    O94      O        0.17254    0.02035    0.82970    1.000
    O95      O        0.16537    0.85215    0.20820    1.000
    H40      H        0.17680    0.89650    0.22810    1.000
    O96      O        0.14908    0.02083    0.05150    1.000
    H41      H        0.16030    0.00480    0.13160    1.000
    O97      O        0.26522    0.81959    0.15290    1.000
    O98      O        0.57597    0.79405    0.89890    1.000
    H42      H        0.56550    0.82450    0.83400    1.000
    C25      C        0.56128    0.82587    0.01560    1.000
    C26      C        0.57783    0.76612    0.13230    1.000
    C27      C        0.16867    0.88320    0.94390    1.000
    C28      C        0.09789    0.87698    0.86770    1.000
    Sr8      Sr       0.83828    0.39730    0.02899    1.000
    P29      P        0.97658    0.34400    0.95982    1.000
    P30      P        0.10911    0.41270    0.07917    1.000
    P31      P        0.69428    0.32095    0.09832    1.000
    P32      P        0.69190    0.48474    0.97234    1.000
    O99      O        0.95668    0.37111    0.07890    1.000
    O100     O        0.95797    0.39442    0.83290    1.000
    O101     O        0.94930    0.26021    0.91480    1.000
    H43      H        0.91450    0.25650    0.92340    1.000
    O102     O        0.10113    0.43312    0.21580    1.000
    O103     O        0.09407    0.47218    0.96730    1.000
    O104     O        0.17846    0.38421    0.10400    1.000
    H44      H        0.19270    0.36490    0.18150    1.000
    O105     O        0.75973    0.48863    0.05960    1.000
    O106     O        0.66331    0.24414    0.05260    1.000
    O107     O        0.70536    0.35718    0.85790    1.000
    H45      H        0.71350    0.31000    0.85600    1.000
    O108     O        0.67254    0.52035    0.82970    1.000
    O109     O        0.66537    0.35215    0.20820    1.000
    H46      H        0.67680    0.39650    0.22810    1.000
    O110     O        0.64908    0.52083    0.05150    1.000
    H47      H        0.66030    0.50480    0.13160    1.000
    O111     O        0.76522    0.31959    0.15290    1.000
    O112     O        0.07597    0.29405    0.89890    1.000
    H48      H        0.06550    0.32450    0.83400    1.000
    C29      C        0.06128    0.32587    0.01560    1.000
    C30      C        0.07783    0.26612    0.13230    1.000
    C31      C        0.66867    0.38320    0.94390    1.000
    C32      C        0.59789    0.37698    0.86770    1.000
    Sr9      Sr       0.50000    0.01385    0.75000    1.000
    Sr10     Sr       0.00000    0.51385    0.75000    1.000
    Sr11     Sr       0.50000    0.98615    0.25000    1.000
    Sr12     Sr       0.00000    0.48615    0.25000    1.000
