# CIF file generated by openbabel 3.1.0, see https://openbabel.org
data_I
_chemical_name_common 'RAFRUL_charged'
_cell_length_a 21.85
_cell_length_b 21.85
_cell_length_c 21.85
_cell_angle_alpha 90
_cell_angle_beta 90
_cell_angle_gamma 90
_space_group_name_H-M_alt 'P 1'
_space_group_name_Hall 'P 1'
loop_
    _symmetry_equiv_pos_as_xyz
    x,y,z
loop_
    _atom_site_label
    _atom_site_type_symbol
    _atom_site_fract_x
    _atom_site_fract_y
    _atom_site_fract_z
    _atom_site_occupancy
    Ag1      Ag       0.03995    0.78245    0.16783    1.000
    Ag2      Ag       0.46005    0.21755    0.66783    1.000
    Ag3      Ag       0.96005    0.28245    0.33217    1.000
    Ag4      Ag       0.53995    0.71755    0.83217    1.000
    Ag5      Ag       0.16783    0.03995    0.78245    1.000
    Ag6      Ag       0.66783    0.46005    0.21755    1.000
    Ag7      Ag       0.33217    0.96005    0.28245    1.000
    Ag8      Ag       0.83217    0.53995    0.71755    1.000
    Ag9      Ag       0.78245    0.16783    0.03995    1.000
    Ag10     Ag       0.21755    0.66783    0.46005    1.000
    Ag11     Ag       0.28245    0.33217    0.96005    1.000
    Ag12     Ag       0.71755    0.83217    0.53995    1.000
    Ag13     Ag       0.96005    0.21755    0.83217    1.000
    Ag14     Ag       0.53995    0.78245    0.33217    1.000
    Ag15     Ag       0.03995    0.71755    0.66783    1.000
    Ag16     Ag       0.46005    0.28245    0.16783    1.000
    Ag17     Ag       0.83217    0.96005    0.21755    1.000
    Ag18     Ag       0.33217    0.53995    0.78245    1.000
    Ag19     Ag       0.66783    0.03995    0.71755    1.000
    Ag20     Ag       0.16783    0.46005    0.28245    1.000
    Ag21     Ag       0.21755    0.83217    0.96005    1.000
    Ag22     Ag       0.78245    0.33217    0.53995    1.000
    Ag23     Ag       0.71755    0.66783    0.03995    1.000
    Ag24     Ag       0.28245    0.16783    0.46005    1.000
    Ag25     Ag       0.69516    0.19516    0.30484    1.000
    Ag26     Ag       0.80484    0.80484    0.80484    1.000
    Ag27     Ag       0.30484    0.69516    0.19516    1.000
    Ag28     Ag       0.19516    0.30484    0.69516    1.000
    Ag29     Ag       0.30484    0.80484    0.69516    1.000
    Ag30     Ag       0.19516    0.19516    0.19516    1.000
    Ag31     Ag       0.69516    0.30484    0.80484    1.000
    Ag32     Ag       0.80484    0.69516    0.30484    1.000
    H1       H        0.94420    0.72140    0.25940    1.000
    H2       H        0.90380    0.74620    0.20530    1.000
    H3       H        0.87430    0.80460    0.37630    1.000
    H4       H        0.92730    0.75820    0.36250    1.000
    H5       H        0.88400    0.91060    0.34310    1.000
    H6       H        0.94320    0.93200    0.30820    1.000
    H7       H        0.82200    0.81890    0.22540    1.000
    H8       H        0.80960    0.84170    0.29250    1.000
    H9       H        0.01700    0.79130    0.30910    1.000
    H10      H        0.02300    0.85910    0.28640    1.000
    H11      H        0.96200    0.89590    0.20210    1.000
    H12      H        0.91460    0.85170    0.17080    1.000
    H13      H        0.55580    0.27860    0.75940    1.000
    H14      H        0.59620    0.25380    0.70530    1.000
    H15      H        0.62570    0.19540    0.87630    1.000
    H16      H        0.57270    0.24180    0.86250    1.000
    H17      H        0.61600    0.08940    0.84310    1.000
    H18      H        0.55680    0.06800    0.80820    1.000
    H19      H        0.67800    0.18110    0.72540    1.000
    H20      H        0.69040    0.15830    0.79250    1.000
    H21      H        0.48300    0.20870    0.80910    1.000
    H22      H        0.47700    0.14090    0.78640    1.000
    H23      H        0.53800    0.10410    0.70210    1.000
    H24      H        0.58540    0.14830    0.67080    1.000
    H25      H        0.05580    0.22140    0.24060    1.000
    H26      H        0.09620    0.24620    0.29470    1.000
    H27      H        0.12570    0.30460    0.12370    1.000
    H28      H        0.07270    0.25820    0.13750    1.000
    H29      H        0.11600    0.41060    0.15690    1.000
    H30      H        0.05680    0.43200    0.19180    1.000
    H31      H        0.17800    0.31890    0.27460    1.000
    H32      H        0.19040    0.34170    0.20750    1.000
    H33      H        0.98300    0.29130    0.19090    1.000
    H34      H        0.97700    0.35910    0.21360    1.000
    H35      H        0.03800    0.39590    0.29790    1.000
    H36      H        0.08540    0.35170    0.32920    1.000
    H37      H        0.44420    0.77860    0.74060    1.000
    H38      H        0.40380    0.75380    0.79470    1.000
    H39      H        0.37430    0.69540    0.62370    1.000
    H40      H        0.42730    0.74180    0.63750    1.000
    H41      H        0.38400    0.58940    0.65690    1.000
    H42      H        0.44320    0.56800    0.69180    1.000
    H43      H        0.32200    0.68110    0.77460    1.000
    H44      H        0.30960    0.65830    0.70750    1.000
    H45      H        0.51700    0.70870    0.69090    1.000
    H46      H        0.52300    0.64090    0.71360    1.000
    H47      H        0.46200    0.60410    0.79790    1.000
    H48      H        0.41460    0.64830    0.82920    1.000
    H49      H        0.25940    0.94420    0.72140    1.000
    H50      H        0.20530    0.90380    0.74620    1.000
    H51      H        0.37630    0.87430    0.80460    1.000
    H52      H        0.36250    0.92730    0.75820    1.000
    H53      H        0.34310    0.88400    0.91060    1.000
    H54      H        0.30820    0.94320    0.93200    1.000
    H55      H        0.22540    0.82200    0.81890    1.000
    H56      H        0.29250    0.80960    0.84170    1.000
    H57      H        0.30910    0.01700    0.79130    1.000
    H58      H        0.28640    0.02300    0.85910    1.000
    H59      H        0.20210    0.96200    0.89590    1.000
    H60      H        0.17080    0.91460    0.85170    1.000
    H61      H        0.75940    0.55580    0.27860    1.000
    H62      H        0.70530    0.59620    0.25380    1.000
    H63      H        0.87630    0.62570    0.19540    1.000
    H64      H        0.86250    0.57270    0.24180    1.000
    H65      H        0.84310    0.61600    0.08940    1.000
    H66      H        0.80820    0.55680    0.06800    1.000
    H67      H        0.72540    0.67800    0.18110    1.000
    H68      H        0.79250    0.69040    0.15830    1.000
    H69      H        0.80910    0.48300    0.20870    1.000
    H70      H        0.78640    0.47700    0.14090    1.000
    H71      H        0.70210    0.53800    0.10410    1.000
    H72      H        0.67080    0.58540    0.14830    1.000
    H73      H        0.24060    0.05580    0.22140    1.000
    H74      H        0.29470    0.09620    0.24620    1.000
    H75      H        0.12370    0.12570    0.30460    1.000
    H76      H        0.13750    0.07270    0.25820    1.000
    H77      H        0.15690    0.11600    0.41060    1.000
    H78      H        0.19180    0.05680    0.43200    1.000
    H79      H        0.27460    0.17800    0.31890    1.000
    H80      H        0.20750    0.19040    0.34170    1.000
    H81      H        0.19090    0.98300    0.29130    1.000
    H82      H        0.21360    0.97700    0.35910    1.000
    H83      H        0.29790    0.03800    0.39590    1.000
    H84      H        0.32920    0.08540    0.35170    1.000
    H85      H        0.74060    0.44420    0.77860    1.000
    H86      H        0.79470    0.40380    0.75380    1.000
    H87      H        0.62370    0.37430    0.69540    1.000
    H88      H        0.63750    0.42730    0.74180    1.000
    H89      H        0.65690    0.38400    0.58940    1.000
    H90      H        0.69180    0.44320    0.56800    1.000
    H91      H        0.77460    0.32200    0.68110    1.000
    H92      H        0.70750    0.30960    0.65830    1.000
    H93      H        0.69090    0.51700    0.70870    1.000
    H94      H        0.71360    0.52300    0.64090    1.000
    H95      H        0.79790    0.46200    0.60410    1.000
    H96      H        0.82920    0.41460    0.64830    1.000
    H97      H        0.72140    0.25940    0.94420    1.000
    H98      H        0.74620    0.20530    0.90380    1.000
    H99      H        0.80460    0.37630    0.87430    1.000
    H100     H        0.75820    0.36250    0.92730    1.000
    H101     H        0.91060    0.34310    0.88400    1.000
    H102     H        0.93200    0.30820    0.94320    1.000
    H103     H        0.81890    0.22540    0.82200    1.000
    H104     H        0.84170    0.29250    0.80960    1.000
    H105     H        0.79130    0.30910    0.01700    1.000
    H106     H        0.85910    0.28640    0.02300    1.000
    H107     H        0.89590    0.20210    0.96200    1.000
    H108     H        0.85170    0.17080    0.91460    1.000
    H109     H        0.27860    0.75940    0.55580    1.000
    H110     H        0.25380    0.70530    0.59620    1.000
    H111     H        0.19540    0.87630    0.62570    1.000
    H112     H        0.24180    0.86250    0.57270    1.000
    H113     H        0.08940    0.84310    0.61600    1.000
    H114     H        0.06800    0.80820    0.55680    1.000
    H115     H        0.18110    0.72540    0.67800    1.000
    H116     H        0.15830    0.79250    0.69040    1.000
    H117     H        0.20870    0.80910    0.48300    1.000
    H118     H        0.14090    0.78640    0.47700    1.000
    H119     H        0.10410    0.70210    0.53800    1.000
    H120     H        0.14830    0.67080    0.58540    1.000
    H121     H        0.22140    0.24060    0.05580    1.000
    H122     H        0.24620    0.29470    0.09620    1.000
    H123     H        0.30460    0.12370    0.12570    1.000
    H124     H        0.25820    0.13750    0.07270    1.000
    H125     H        0.41060    0.15690    0.11600    1.000
    H126     H        0.43200    0.19180    0.05680    1.000
    H127     H        0.31890    0.27460    0.17800    1.000
    H128     H        0.34170    0.20750    0.19040    1.000
    H129     H        0.29130    0.19090    0.98300    1.000
    H130     H        0.35910    0.21360    0.97700    1.000
    H131     H        0.39590    0.29790    0.03800    1.000
    H132     H        0.35170    0.32920    0.08540    1.000
    H133     H        0.77860    0.74060    0.44420    1.000
    H134     H        0.75380    0.79470    0.40380    1.000
    H135     H        0.69540    0.62370    0.37430    1.000
    H136     H        0.74180    0.63750    0.42730    1.000
    H137     H        0.58940    0.65690    0.38400    1.000
    H138     H        0.56800    0.69180    0.44320    1.000
    H139     H        0.68110    0.77460    0.32200    1.000
    H140     H        0.65830    0.70750    0.30960    1.000
    H141     H        0.70870    0.69090    0.51700    1.000
    H142     H        0.64090    0.71360    0.52300    1.000
    H143     H        0.60410    0.79790    0.46200    1.000
    H144     H        0.64830    0.82920    0.41460    1.000
    H145     H        0.05580    0.27860    0.74060    1.000
    H146     H        0.09620    0.25380    0.79470    1.000
    H147     H        0.12570    0.19540    0.62370    1.000
    H148     H        0.07270    0.24180    0.63750    1.000
    H149     H        0.11600    0.08940    0.65690    1.000
    H150     H        0.05680    0.06800    0.69180    1.000
    H151     H        0.17800    0.18110    0.77460    1.000
    H152     H        0.19040    0.15830    0.70750    1.000
    H153     H        0.98300    0.20870    0.69090    1.000
    H154     H        0.97700    0.14090    0.71360    1.000
    H155     H        0.03800    0.10410    0.79790    1.000
    H156     H        0.08540    0.14830    0.82920    1.000
    H157     H        0.44420    0.72140    0.24060    1.000
    H158     H        0.40380    0.74620    0.29470    1.000
    H159     H        0.37430    0.80460    0.12370    1.000
    H160     H        0.42730    0.75820    0.13750    1.000
    H161     H        0.38400    0.91060    0.15690    1.000
    H162     H        0.44320    0.93200    0.19180    1.000
    H163     H        0.32200    0.81890    0.27460    1.000
    H164     H        0.30960    0.84170    0.20750    1.000
    H165     H        0.51700    0.79130    0.19090    1.000
    H166     H        0.52300    0.85910    0.21360    1.000
    H167     H        0.46200    0.89590    0.29790    1.000
    H168     H        0.41460    0.85170    0.32920    1.000
    H169     H        0.94420    0.77860    0.75940    1.000
    H170     H        0.90380    0.75380    0.70530    1.000
    H171     H        0.87430    0.69540    0.87630    1.000
    H172     H        0.92730    0.74180    0.86250    1.000
    H173     H        0.88400    0.58940    0.84310    1.000
    H174     H        0.94320    0.56800    0.80820    1.000
    H175     H        0.82200    0.68110    0.72540    1.000
    H176     H        0.80960    0.65830    0.79250    1.000
    H177     H        0.01700    0.70870    0.80910    1.000
    H178     H        0.02300    0.64090    0.78640    1.000
    H179     H        0.96200    0.60410    0.70210    1.000
    H180     H        0.91460    0.64830    0.67080    1.000
    H181     H        0.55580    0.22140    0.25940    1.000
    H182     H        0.59620    0.24620    0.20530    1.000
    H183     H        0.62570    0.30460    0.37630    1.000
    H184     H        0.57270    0.25820    0.36250    1.000
    H185     H        0.61600    0.41060    0.34310    1.000
    H186     H        0.55680    0.43200    0.30820    1.000
    H187     H        0.67800    0.31890    0.22540    1.000
    H188     H        0.69040    0.34170    0.29250    1.000
    H189     H        0.48300    0.29130    0.30910    1.000
    H190     H        0.47700    0.35910    0.28640    1.000
    H191     H        0.53800    0.39590    0.20210    1.000
    H192     H        0.58540    0.35170    0.17080    1.000
    H193     H        0.74060    0.05580    0.27860    1.000
    H194     H        0.79470    0.09620    0.25380    1.000
    H195     H        0.62370    0.12570    0.19540    1.000
    H196     H        0.63750    0.07270    0.24180    1.000
    H197     H        0.65690    0.11600    0.08940    1.000
    H198     H        0.69180    0.05680    0.06800    1.000
    H199     H        0.77460    0.17800    0.18110    1.000
    H200     H        0.70750    0.19040    0.15830    1.000
    H201     H        0.69090    0.98300    0.20870    1.000
    H202     H        0.71360    0.97700    0.14090    1.000
    H203     H        0.79790    0.03800    0.10410    1.000
    H204     H        0.82920    0.08540    0.14830    1.000
    H205     H        0.24060    0.44420    0.72140    1.000
    H206     H        0.29470    0.40380    0.74620    1.000
    H207     H        0.12370    0.37430    0.80460    1.000
    H208     H        0.13750    0.42730    0.75820    1.000
    H209     H        0.15690    0.38400    0.91060    1.000
    H210     H        0.19180    0.44320    0.93200    1.000
    H211     H        0.27460    0.32200    0.81890    1.000
    H212     H        0.20750    0.30960    0.84170    1.000
    H213     H        0.19090    0.51700    0.79130    1.000
    H214     H        0.21360    0.52300    0.85910    1.000
    H215     H        0.29790    0.46200    0.89590    1.000
    H216     H        0.32920    0.41460    0.85170    1.000
    H217     H        0.75940    0.94420    0.77860    1.000
    H218     H        0.70530    0.90380    0.75380    1.000
    H219     H        0.87630    0.87430    0.69540    1.000
    H220     H        0.86250    0.92730    0.74180    1.000
    H221     H        0.84310    0.88400    0.58940    1.000
    H222     H        0.80820    0.94320    0.56800    1.000
    H223     H        0.72540    0.82200    0.68110    1.000
    H224     H        0.79250    0.80960    0.65830    1.000
    H225     H        0.80910    0.01700    0.70870    1.000
    H226     H        0.78640    0.02300    0.64090    1.000
    H227     H        0.70210    0.96200    0.60410    1.000
    H228     H        0.67080    0.91460    0.64830    1.000
    H229     H        0.25940    0.55580    0.22140    1.000
    H230     H        0.20530    0.59620    0.24620    1.000
    H231     H        0.37630    0.62570    0.30460    1.000
    H232     H        0.36250    0.57270    0.25820    1.000
    H233     H        0.34310    0.61600    0.41060    1.000
    H234     H        0.30820    0.55680    0.43200    1.000
    H235     H        0.22540    0.67800    0.31890    1.000
    H236     H        0.29250    0.69040    0.34170    1.000
    H237     H        0.30910    0.48300    0.29130    1.000
    H238     H        0.28640    0.47700    0.35910    1.000
    H239     H        0.20210    0.53800    0.39590    1.000
    H240     H        0.17080    0.58540    0.35170    1.000
    H241     H        0.27860    0.74060    0.05580    1.000
    H242     H        0.25380    0.79470    0.09620    1.000
    H243     H        0.19540    0.62370    0.12570    1.000
    H244     H        0.24180    0.63750    0.07270    1.000
    H245     H        0.08940    0.65690    0.11600    1.000
    H246     H        0.06800    0.69180    0.05680    1.000
    H247     H        0.18110    0.77460    0.17800    1.000
    H248     H        0.15830    0.70750    0.19040    1.000
    H249     H        0.20870    0.69090    0.98300    1.000
    H250     H        0.14090    0.71360    0.97700    1.000
    H251     H        0.10410    0.79790    0.03800    1.000
    H252     H        0.14830    0.82920    0.08540    1.000
    H253     H        0.72140    0.24060    0.44420    1.000
    H254     H        0.74620    0.29470    0.40380    1.000
    H255     H        0.80460    0.12370    0.37430    1.000
    H256     H        0.75820    0.13750    0.42730    1.000
    H257     H        0.91060    0.15690    0.38400    1.000
    H258     H        0.93200    0.19180    0.44320    1.000
    H259     H        0.81890    0.27460    0.32200    1.000
    H260     H        0.84170    0.20750    0.30960    1.000
    H261     H        0.79130    0.19090    0.51700    1.000
    H262     H        0.85910    0.21360    0.52300    1.000
    H263     H        0.89590    0.29790    0.46200    1.000
    H264     H        0.85170    0.32920    0.41460    1.000
    H265     H        0.77860    0.75940    0.94420    1.000
    H266     H        0.75380    0.70530    0.90380    1.000
    H267     H        0.69540    0.87630    0.87430    1.000
    H268     H        0.74180    0.86250    0.92730    1.000
    H269     H        0.58940    0.84310    0.88400    1.000
    H270     H        0.56800    0.80820    0.94320    1.000
    H271     H        0.68110    0.72540    0.82200    1.000
    H272     H        0.65830    0.79250    0.80960    1.000
    H273     H        0.70870    0.80910    0.01700    1.000
    H274     H        0.64090    0.78640    0.02300    1.000
    H275     H        0.60410    0.70210    0.96200    1.000
    H276     H        0.64830    0.67080    0.91460    1.000
    H277     H        0.22140    0.25940    0.55580    1.000
    H278     H        0.24620    0.20530    0.59620    1.000
    H279     H        0.30460    0.37630    0.62570    1.000
    H280     H        0.25820    0.36250    0.57270    1.000
    H281     H        0.41060    0.34310    0.61600    1.000
    H282     H        0.43200    0.30820    0.55680    1.000
    H283     H        0.31890    0.22540    0.67800    1.000
    H284     H        0.34170    0.29250    0.69040    1.000
    H285     H        0.29130    0.30910    0.48300    1.000
    H286     H        0.35910    0.28640    0.47700    1.000
    H287     H        0.39590    0.20210    0.53800    1.000
    H288     H        0.35170    0.17080    0.58540    1.000
    C1       C        0.92270    0.75710    0.24400    1.000
    C2       C        0.90520    0.79310    0.34650    1.000
    C3       C        0.91510    0.89810    0.31400    1.000
    C4       C        0.84130    0.82940    0.26390    1.000
    C5       C        0.99440    0.82590    0.29290    1.000
    C6       C        0.93370    0.86250    0.20940    1.000
    C7       C        0.57730    0.24290    0.74400    1.000
    C8       C        0.59480    0.20690    0.84650    1.000
    C9       C        0.58490    0.10190    0.81400    1.000
    C10      C        0.65870    0.17060    0.76390    1.000
    C11      C        0.50560    0.17410    0.79290    1.000
    C12      C        0.56630    0.13750    0.70940    1.000
    C13      C        0.07730    0.25710    0.25600    1.000
    C14      C        0.09480    0.29310    0.15350    1.000
    C15      C        0.08490    0.39810    0.18600    1.000
    C16      C        0.15870    0.32940    0.23610    1.000
    C17      C        0.00560    0.32590    0.20710    1.000
    C18      C        0.06630    0.36250    0.29060    1.000
    C19      C        0.42270    0.74290    0.75600    1.000
    C20      C        0.40520    0.70690    0.65350    1.000
    C21      C        0.41510    0.60190    0.68600    1.000
    C22      C        0.34130    0.67060    0.73610    1.000
    C23      C        0.49440    0.67410    0.70710    1.000
    C24      C        0.43370    0.63750    0.79060    1.000
    C25      C        0.24400    0.92270    0.75710    1.000
    C26      C        0.34650    0.90520    0.79310    1.000
    C27      C        0.31400    0.91510    0.89810    1.000
    C28      C        0.26390    0.84130    0.82940    1.000
    C29      C        0.29290    0.99440    0.82590    1.000
    C30      C        0.20940    0.93370    0.86250    1.000
    C31      C        0.74400    0.57730    0.24290    1.000
    C32      C        0.84650    0.59480    0.20690    1.000
    C33      C        0.81400    0.58490    0.10190    1.000
    C34      C        0.76390    0.65870    0.17060    1.000
    C35      C        0.79290    0.50560    0.17410    1.000
    C36      C        0.70940    0.56630    0.13750    1.000
    C37      C        0.25600    0.07730    0.25710    1.000
    C38      C        0.15350    0.09480    0.29310    1.000
    C39      C        0.18600    0.08490    0.39810    1.000
    C40      C        0.23610    0.15870    0.32940    1.000
    C41      C        0.20710    0.00560    0.32590    1.000
    C42      C        0.29060    0.06630    0.36250    1.000
    C43      C        0.75600    0.42270    0.74290    1.000
    C44      C        0.65350    0.40520    0.70690    1.000
    C45      C        0.68600    0.41510    0.60190    1.000
    C46      C        0.73610    0.34130    0.67060    1.000
    C47      C        0.70710    0.49440    0.67410    1.000
    C48      C        0.79060    0.43370    0.63750    1.000
    C49      C        0.75710    0.24400    0.92270    1.000
    C50      C        0.79310    0.34650    0.90520    1.000
    C51      C        0.89810    0.31400    0.91510    1.000
    C52      C        0.82940    0.26390    0.84130    1.000
    C53      C        0.82590    0.29290    0.99440    1.000
    C54      C        0.86250    0.20940    0.93370    1.000
    C55      C        0.24290    0.74400    0.57730    1.000
    C56      C        0.20690    0.84650    0.59480    1.000
    C57      C        0.10190    0.81400    0.58490    1.000
    C58      C        0.17060    0.76390    0.65870    1.000
    C59      C        0.17410    0.79290    0.50560    1.000
    C60      C        0.13750    0.70940    0.56630    1.000
    C61      C        0.25710    0.25600    0.07730    1.000
    C62      C        0.29310    0.15350    0.09480    1.000
    C63      C        0.39810    0.18600    0.08490    1.000
    C64      C        0.32940    0.23610    0.15870    1.000
    C65      C        0.32590    0.20710    0.00560    1.000
    C66      C        0.36250    0.29060    0.06630    1.000
    C67      C        0.74290    0.75600    0.42270    1.000
    C68      C        0.70690    0.65350    0.40520    1.000
    C69      C        0.60190    0.68600    0.41510    1.000
    C70      C        0.67060    0.73610    0.34130    1.000
    C71      C        0.67410    0.70710    0.49440    1.000
    C72      C        0.63750    0.79060    0.43370    1.000
    C73      C        0.07730    0.24290    0.75600    1.000
    C74      C        0.09480    0.20690    0.65350    1.000
    C75      C        0.08490    0.10190    0.68600    1.000
    C76      C        0.15870    0.17060    0.73610    1.000
    C77      C        0.00560    0.17410    0.70710    1.000
    C78      C        0.06630    0.13750    0.79060    1.000
    C79      C        0.42270    0.75710    0.25600    1.000
    C80      C        0.40520    0.79310    0.15350    1.000
    C81      C        0.41510    0.89810    0.18600    1.000
    C82      C        0.34130    0.82940    0.23610    1.000
    C83      C        0.49440    0.82590    0.20710    1.000
    C84      C        0.43370    0.86250    0.29060    1.000
    C85      C        0.92270    0.74290    0.74400    1.000
    C86      C        0.90520    0.70690    0.84650    1.000
    C87      C        0.91510    0.60190    0.81400    1.000
    C88      C        0.84130    0.67060    0.76390    1.000
    C89      C        0.99440    0.67410    0.79290    1.000
    C90      C        0.93370    0.63750    0.70940    1.000
    C91      C        0.57730    0.25710    0.24400    1.000
    C92      C        0.59480    0.29310    0.34650    1.000
    C93      C        0.58490    0.39810    0.31400    1.000
    C94      C        0.65870    0.32940    0.26390    1.000
    C95      C        0.50560    0.32590    0.29290    1.000
    C96      C        0.56630    0.36250    0.20940    1.000
    C97      C        0.75600    0.07730    0.24290    1.000
    C98      C        0.65350    0.09480    0.20690    1.000
    C99      C        0.68600    0.08490    0.10190    1.000
    C100     C        0.73610    0.15870    0.17060    1.000
    C101     C        0.70710    0.00560    0.17410    1.000
    C102     C        0.79060    0.06630    0.13750    1.000
    C103     C        0.25600    0.42270    0.75710    1.000
    C104     C        0.15350    0.40520    0.79310    1.000
    C105     C        0.18600    0.41510    0.89810    1.000
    C106     C        0.23610    0.34130    0.82940    1.000
    C107     C        0.20710    0.49440    0.82590    1.000
    C108     C        0.29060    0.43370    0.86250    1.000
    C109     C        0.74400    0.92270    0.74290    1.000
    C110     C        0.84650    0.90520    0.70690    1.000
    C111     C        0.81400    0.91510    0.60190    1.000
    C112     C        0.76390    0.84130    0.67060    1.000
    C113     C        0.79290    0.99440    0.67410    1.000
    C114     C        0.70940    0.93370    0.63750    1.000
    C115     C        0.24400    0.57730    0.25710    1.000
    C116     C        0.34650    0.59480    0.29310    1.000
    C117     C        0.31400    0.58490    0.39810    1.000
    C118     C        0.26390    0.65870    0.32940    1.000
    C119     C        0.29290    0.50560    0.32590    1.000
    C120     C        0.20940    0.56630    0.36250    1.000
    C121     C        0.24290    0.75600    0.07730    1.000
    C122     C        0.20690    0.65350    0.09480    1.000
    C123     C        0.10190    0.68600    0.08490    1.000
    C124     C        0.17060    0.73610    0.15870    1.000
    C125     C        0.17410    0.70710    0.00560    1.000
    C126     C        0.13750    0.79060    0.06630    1.000
    C127     C        0.75710    0.25600    0.42270    1.000
    C128     C        0.79310    0.15350    0.40520    1.000
    C129     C        0.89810    0.18600    0.41510    1.000
    C130     C        0.82940    0.23610    0.34130    1.000
    C131     C        0.82590    0.20710    0.49440    1.000
    C132     C        0.86250    0.29060    0.43370    1.000
    C133     C        0.74290    0.74400    0.92270    1.000
    C134     C        0.70690    0.84650    0.90520    1.000
    C135     C        0.60190    0.81400    0.91510    1.000
    C136     C        0.67060    0.76390    0.84130    1.000
    C137     C        0.67410    0.79290    0.99440    1.000
    C138     C        0.63750    0.70940    0.93370    1.000
    C139     C        0.25710    0.24400    0.57730    1.000
    C140     C        0.29310    0.34650    0.59480    1.000
    C141     C        0.39810    0.31400    0.58490    1.000
    C142     C        0.32940    0.26390    0.65870    1.000
    C143     C        0.32590    0.29290    0.50560    1.000
    C144     C        0.36250    0.20940    0.56630    1.000
    N1       N        0.94840    0.84500    0.33790    1.000
    N2       N        0.88570    0.88210    0.25430    1.000
    N3       N        0.87470    0.77560    0.28840    1.000
    N4       N        0.96730    0.80870    0.23440    1.000
    N5       N        0.55160    0.15500    0.83790    1.000
    N6       N        0.61430    0.11790    0.75430    1.000
    N7       N        0.62530    0.22440    0.78840    1.000
    N8       N        0.53270    0.19130    0.73440    1.000
    N9       N        0.05160    0.34500    0.16210    1.000
    N10      N        0.11430    0.38210    0.24570    1.000
    N11      N        0.12530    0.27560    0.21160    1.000
    N12      N        0.03270    0.30870    0.26560    1.000
    N13      N        0.44840    0.65500    0.66210    1.000
    N14      N        0.38570    0.61790    0.74570    1.000
    N15      N        0.37470    0.72440    0.71160    1.000
    N16      N        0.46730    0.69130    0.76560    1.000
    N17      N        0.33790    0.94840    0.84500    1.000
    N18      N        0.25430    0.88570    0.88210    1.000
    N19      N        0.28840    0.87470    0.77560    1.000
    N20      N        0.23440    0.96730    0.80870    1.000
    N21      N        0.83790    0.55160    0.15500    1.000
    N22      N        0.75430    0.61430    0.11790    1.000
    N23      N        0.78840    0.62530    0.22440    1.000
    N24      N        0.73440    0.53270    0.19130    1.000
    N25      N        0.16210    0.05160    0.34500    1.000
    N26      N        0.24570    0.11430    0.38210    1.000
    N27      N        0.21160    0.12530    0.27560    1.000
    N28      N        0.26560    0.03270    0.30870    1.000
    N29      N        0.66210    0.44840    0.65500    1.000
    N30      N        0.74570    0.38570    0.61790    1.000
    N31      N        0.71160    0.37470    0.72440    1.000
    N32      N        0.76560    0.46730    0.69130    1.000
    N33      N        0.84500    0.33790    0.94840    1.000
    N34      N        0.88210    0.25430    0.88570    1.000
    N35      N        0.77560    0.28840    0.87470    1.000
    N36      N        0.80870    0.23440    0.96730    1.000
    N37      N        0.15500    0.83790    0.55160    1.000
    N38      N        0.11790    0.75430    0.61430    1.000
    N39      N        0.22440    0.78840    0.62530    1.000
    N40      N        0.19130    0.73440    0.53270    1.000
    N41      N        0.34500    0.16210    0.05160    1.000
    N42      N        0.38210    0.24570    0.11430    1.000
    N43      N        0.27560    0.21160    0.12530    1.000
    N44      N        0.30870    0.26560    0.03270    1.000
    N45      N        0.65500    0.66210    0.44840    1.000
    N46      N        0.61790    0.74570    0.38570    1.000
    N47      N        0.72440    0.71160    0.37470    1.000
    N48      N        0.69130    0.76560    0.46730    1.000
    N49      N        0.05160    0.15500    0.66210    1.000
    N50      N        0.11430    0.11790    0.74570    1.000
    N51      N        0.12530    0.22440    0.71160    1.000
    N52      N        0.03270    0.19130    0.76560    1.000
    N53      N        0.44840    0.84500    0.16210    1.000
    N54      N        0.38570    0.88210    0.24570    1.000
    N55      N        0.37470    0.77560    0.21160    1.000
    N56      N        0.46730    0.80870    0.26560    1.000
    N57      N        0.94840    0.65500    0.83790    1.000
    N58      N        0.88570    0.61790    0.75430    1.000
    N59      N        0.87470    0.72440    0.78840    1.000
    N60      N        0.96730    0.69130    0.73440    1.000
    N61      N        0.55160    0.34500    0.33790    1.000
    N62      N        0.61430    0.38210    0.25430    1.000
    N63      N        0.62530    0.27560    0.28840    1.000
    N64      N        0.53270    0.30870    0.23440    1.000
    N65      N        0.66210    0.05160    0.15500    1.000
    N66      N        0.74570    0.11430    0.11790    1.000
    N67      N        0.71160    0.12530    0.22440    1.000
    N68      N        0.76560    0.03270    0.19130    1.000
    N69      N        0.16210    0.44840    0.84500    1.000
    N70      N        0.24570    0.38570    0.88210    1.000
    N71      N        0.21160    0.37470    0.77560    1.000
    N72      N        0.26560    0.46730    0.80870    1.000
    N73      N        0.83790    0.94840    0.65500    1.000
    N74      N        0.75430    0.88570    0.61790    1.000
    N75      N        0.78840    0.87470    0.72440    1.000
    N76      N        0.73440    0.96730    0.69130    1.000
    N77      N        0.33790    0.55160    0.34500    1.000
    N78      N        0.25430    0.61430    0.38210    1.000
    N79      N        0.28840    0.62530    0.27560    1.000
    N80      N        0.23440    0.53270    0.30870    1.000
    N81      N        0.15500    0.66210    0.05160    1.000
    N82      N        0.11790    0.74570    0.11430    1.000
    N83      N        0.22440    0.71160    0.12530    1.000
    N84      N        0.19130    0.76560    0.03270    1.000
    N85      N        0.84500    0.16210    0.44840    1.000
    N86      N        0.88210    0.24570    0.38570    1.000
    N87      N        0.77560    0.21160    0.37470    1.000
    N88      N        0.80870    0.26560    0.46730    1.000
    N89      N        0.65500    0.83790    0.94840    1.000
    N90      N        0.61790    0.75430    0.88570    1.000
    N91      N        0.72440    0.78840    0.87470    1.000
    N92      N        0.69130    0.73440    0.96730    1.000
    N93      N        0.34500    0.33790    0.55160    1.000
    N94      N        0.38210    0.25430    0.61430    1.000
    N95      N        0.27560    0.28840    0.62530    1.000
    N96      N        0.30870    0.23440    0.53270    1.000
    P1       P        0.90930    0.75980    0.53970    1.000
    F1       F        0.96570    0.77820    0.49910    1.000
    F2       F        0.85510    0.74280    0.58120    1.000
    F3       F        0.95120    0.70980    0.57060    1.000
    F4       F        0.88760    0.71470    0.48950    1.000
    F5       F        0.93140    0.80800    0.58940    1.000
    F6       F        0.87020    0.81060    0.50830    1.000
    P2       P        0.59070    0.24020    0.03970    1.000
    F7       F        0.53430    0.22180    0.99910    1.000
    F8       F        0.64490    0.25720    0.08120    1.000
    F9       F        0.54880    0.29020    0.07060    1.000
    F10      F        0.61240    0.28530    0.98950    1.000
    F11      F        0.56860    0.19200    0.08940    1.000
    F12      F        0.62980    0.18940    0.00830    1.000
    P3       P        0.09070    0.25980    0.96030    1.000
    F13      F        0.03430    0.27820    0.00090    1.000
    F14      F        0.14490    0.24280    0.91880    1.000
    F15      F        0.04880    0.20980    0.92940    1.000
    F16      F        0.11240    0.21470    0.01050    1.000
    F17      F        0.06860    0.30800    0.91060    1.000
    F18      F        0.12980    0.31060    0.99170    1.000
    P4       P        0.40930    0.74020    0.46030    1.000
    F19      F        0.46570    0.72180    0.50090    1.000
    F20      F        0.35510    0.75720    0.41880    1.000
    F21      F        0.45120    0.79020    0.42940    1.000
    F22      F        0.38760    0.78530    0.51050    1.000
    F23      F        0.43140    0.69200    0.41060    1.000
    F24      F        0.37020    0.68940    0.49170    1.000
    P5       P        0.53970    0.90930    0.75980    1.000
    F25      F        0.49910    0.96570    0.77820    1.000
    F26      F        0.58120    0.85510    0.74280    1.000
    F27      F        0.57060    0.95120    0.70980    1.000
    F28      F        0.48950    0.88760    0.71470    1.000
    F29      F        0.58940    0.93140    0.80800    1.000
    F30      F        0.50830    0.87020    0.81060    1.000
    P6       P        0.03970    0.59070    0.24020    1.000
    F31      F        0.99910    0.53430    0.22180    1.000
    F32      F        0.08120    0.64490    0.25720    1.000
    F33      F        0.07060    0.54880    0.29020    1.000
    F34      F        0.98950    0.61240    0.28530    1.000
    F35      F        0.08940    0.56860    0.19200    1.000
    F36      F        0.00830    0.62980    0.18940    1.000
    P7       P        0.96030    0.09070    0.25980    1.000
    F37      F        0.00090    0.03430    0.27820    1.000
    F38      F        0.91880    0.14490    0.24280    1.000
    F39      F        0.92940    0.04880    0.20980    1.000
    F40      F        0.01050    0.11240    0.21470    1.000
    F41      F        0.91060    0.06860    0.30800    1.000
    F42      F        0.99170    0.12980    0.31060    1.000
    P8       P        0.46030    0.40930    0.74020    1.000
    F43      F        0.50090    0.46570    0.72180    1.000
    F44      F        0.41880    0.35510    0.75720    1.000
    F45      F        0.42940    0.45120    0.79020    1.000
    F46      F        0.51050    0.38760    0.78530    1.000
    F47      F        0.41060    0.43140    0.69200    1.000
    F48      F        0.49170    0.37020    0.68940    1.000
    P9       P        0.75980    0.53970    0.90930    1.000
    F49      F        0.77820    0.49910    0.96570    1.000
    F50      F        0.74280    0.58120    0.85510    1.000
    F51      F        0.70980    0.57060    0.95120    1.000
    F52      F        0.71470    0.48950    0.88760    1.000
    F53      F        0.80800    0.58940    0.93140    1.000
    F54      F        0.81060    0.50830    0.87020    1.000
    P10      P        0.24020    0.03970    0.59070    1.000
    F55      F        0.22180    0.99910    0.53430    1.000
    F56      F        0.25720    0.08120    0.64490    1.000
    F57      F        0.29020    0.07060    0.54880    1.000
    F58      F        0.28530    0.98950    0.61240    1.000
    F59      F        0.19200    0.08940    0.56860    1.000
    F60      F        0.18940    0.00830    0.62980    1.000
    P11      P        0.25980    0.96030    0.09070    1.000
    F61      F        0.27820    0.00090    0.03430    1.000
    F62      F        0.24280    0.91880    0.14490    1.000
    F63      F        0.20980    0.92940    0.04880    1.000
    F64      F        0.21470    0.01050    0.11240    1.000
    F65      F        0.30800    0.91060    0.06860    1.000
    F66      F        0.31060    0.99170    0.12980    1.000
    P12      P        0.74020    0.46030    0.40930    1.000
    F67      F        0.72180    0.50090    0.46570    1.000
    F68      F        0.75720    0.41880    0.35510    1.000
    F69      F        0.79020    0.42940    0.45120    1.000
    F70      F        0.78530    0.51050    0.38760    1.000
    F71      F        0.69200    0.41060    0.43140    1.000
    F72      F        0.68940    0.49170    0.37020    1.000
    P13      P        0.09070    0.24020    0.46030    1.000
    F73      F        0.03430    0.22180    0.50090    1.000
    F74      F        0.14490    0.25720    0.41880    1.000
    F75      F        0.04880    0.29020    0.42940    1.000
    F76      F        0.11240    0.28530    0.51050    1.000
    F77      F        0.06860    0.19200    0.41060    1.000
    F78      F        0.12980    0.18940    0.49170    1.000
    P14      P        0.40930    0.75980    0.96030    1.000
    F79      F        0.46570    0.77820    0.00090    1.000
    F80      F        0.35510    0.74280    0.91880    1.000
    F81      F        0.45120    0.70980    0.92940    1.000
    F82      F        0.38760    0.71470    0.01050    1.000
    F83      F        0.43140    0.80800    0.91060    1.000
    F84      F        0.37020    0.81060    0.99170    1.000
    P15      P        0.90930    0.74020    0.03970    1.000
    F85      F        0.96570    0.72180    0.99910    1.000
    F86      F        0.85510    0.75720    0.08120    1.000
    F87      F        0.95120    0.79020    0.07060    1.000
    F88      F        0.88760    0.78530    0.98950    1.000
    F89      F        0.93140    0.69200    0.08940    1.000
    F90      F        0.87020    0.68940    0.00830    1.000
    P16      P        0.59070    0.25980    0.53970    1.000
    F91      F        0.53430    0.27820    0.49910    1.000
    F92      F        0.64490    0.24280    0.58120    1.000
    F93      F        0.54880    0.20980    0.57060    1.000
    F94      F        0.61240    0.21470    0.48950    1.000
    F95      F        0.56860    0.30800    0.58940    1.000
    F96      F        0.62980    0.31060    0.50830    1.000
    P17      P        0.46030    0.09070    0.24020    1.000
    F97      F        0.50090    0.03430    0.22180    1.000
    F98      F        0.41880    0.14490    0.25720    1.000
    F99      F        0.42940    0.04880    0.29020    1.000
    F100     F        0.51050    0.11240    0.28530    1.000
    F101     F        0.41060    0.06860    0.19200    1.000
    F102     F        0.49170    0.12980    0.18940    1.000
    P18      P        0.96030    0.40930    0.75980    1.000
    F103     F        0.00090    0.46570    0.77820    1.000
    F104     F        0.91880    0.35510    0.74280    1.000
    F105     F        0.92940    0.45120    0.70980    1.000
    F106     F        0.01050    0.38760    0.71470    1.000
    F107     F        0.91060    0.43140    0.80800    1.000
    F108     F        0.99170    0.37020    0.81060    1.000
    P19      P        0.03970    0.90930    0.74020    1.000
    F109     F        0.99910    0.96570    0.72180    1.000
    F110     F        0.08120    0.85510    0.75720    1.000
    F111     F        0.07060    0.95120    0.79020    1.000
    F112     F        0.98950    0.88760    0.78530    1.000
    F113     F        0.08940    0.93140    0.69200    1.000
    F114     F        0.00830    0.87020    0.68940    1.000
    P20      P        0.53970    0.59070    0.25980    1.000
    F115     F        0.49910    0.53430    0.27820    1.000
    F116     F        0.58120    0.64490    0.24280    1.000
    F117     F        0.57060    0.54880    0.20980    1.000
    F118     F        0.48950    0.61240    0.21470    1.000
    F119     F        0.58940    0.56860    0.30800    1.000
    F120     F        0.50830    0.62980    0.31060    1.000
    P21      P        0.24020    0.46030    0.09070    1.000
    F121     F        0.22180    0.50090    0.03430    1.000
    F122     F        0.25720    0.41880    0.14490    1.000
    F123     F        0.29020    0.42940    0.04880    1.000
    F124     F        0.28530    0.51050    0.11240    1.000
    F125     F        0.19200    0.41060    0.06860    1.000
    F126     F        0.18940    0.49170    0.12980    1.000
    P22      P        0.75980    0.96030    0.40930    1.000
    F127     F        0.77820    0.00090    0.46570    1.000
    F128     F        0.74280    0.91880    0.35510    1.000
    F129     F        0.70980    0.92940    0.45120    1.000
    F130     F        0.71470    0.01050    0.38760    1.000
    F131     F        0.80800    0.91060    0.43140    1.000
    F132     F        0.81060    0.99170    0.37020    1.000
    P23      P        0.74020    0.03970    0.90930    1.000
    F133     F        0.72180    0.99910    0.96570    1.000
    F134     F        0.75720    0.08120    0.85510    1.000
    F135     F        0.79020    0.07060    0.95120    1.000
    F136     F        0.78530    0.98950    0.88760    1.000
    F137     F        0.69200    0.08940    0.93140    1.000
    F138     F        0.68940    0.00830    0.87020    1.000
    P24      P        0.25980    0.53970    0.59070    1.000
    F139     F        0.27820    0.49910    0.53430    1.000
    F140     F        0.24280    0.58120    0.64490    1.000
    F141     F        0.20980    0.57060    0.54880    1.000
    F142     F        0.21470    0.48950    0.61240    1.000
    F143     F        0.30800    0.58940    0.56860    1.000
    F144     F        0.31060    0.50830    0.62980    1.000
