# CIF file generated by openbabel 3.1.0, see https://openbabel.org
data_I
_chemical_name_common 'MAZJAY_clean'
_cell_length_a 9.0462
_cell_length_b 9.0462
_cell_length_c 16.986
_cell_angle_alpha 90
_cell_angle_beta 90
_cell_angle_gamma 116.369
_space_group_name_H-M_alt 'P 1'
_space_group_name_Hall 'P 1'
loop_
    _symmetry_equiv_pos_as_xyz
    x,y,z
loop_
    _atom_site_label
    _atom_site_type_symbol
    _atom_site_fract_x
    _atom_site_fract_y
    _atom_site_fract_z
    _atom_site_occupancy
    Eu1      Eu       0.99999    0.99999    0.00000    1.000
    Eu2      Eu       0.99999    0.99999    0.50000    1.000
    Eu3      Eu       0.35564    0.65262    0.25000    1.000
    Eu4      Eu       0.65262    0.35564    0.75000    1.000
    H1       H        0.54610    0.94690    0.07980    1.000
    H2       H        0.50570    0.80570    0.01730    1.000
    H3       H        0.58760    0.97840    0.90740    1.000
    H4       H        0.61730    0.13070    0.96110    1.000
    H5       H        0.39450    0.39750    0.08800    1.000
    H6       H        0.32410    0.49050    0.03280    1.000
    H7       H        0.94690    0.54610    0.92020    1.000
    H8       H        0.80570    0.50570    0.98270    1.000
    H9       H        0.97840    0.58760    0.09260    1.000
    H10      H        0.13070    0.61730    0.03890    1.000
    H11      H        0.39750    0.39450    0.91200    1.000
    H12      H        0.49050    0.32410    0.96720    1.000
    H13      H        0.94690    0.54610    0.57980    1.000
    H14      H        0.80570    0.50570    0.51730    1.000
    H15      H        0.97840    0.58760    0.40740    1.000
    H16      H        0.13070    0.61730    0.46110    1.000
    H17      H        0.39750    0.39450    0.58800    1.000
    H18      H        0.49050    0.32410    0.53280    1.000
    H19      H        0.54610    0.94690    0.42020    1.000
    H20      H        0.50570    0.80570    0.48270    1.000
    H21      H        0.58760    0.97840    0.59260    1.000
    H22      H        0.61730    0.13070    0.53890    1.000
    H23      H        0.39450    0.39750    0.41200    1.000
    H24      H        0.32410    0.49050    0.46720    1.000
    C1       C        0.65890    0.80070    0.10420    1.000
    C2       C        0.59230    0.88610    0.04980    1.000
    C3       C        0.66860    0.06540    0.93950    1.000
    C4       C        0.81450    0.17290    0.88970    1.000
    C5       C        0.15370    0.34110    0.11280    1.000
    C6       C        0.29860    0.38580    0.05810    1.000
    C7       C        0.80070    0.65890    0.89580    1.000
    C8       C        0.88610    0.59230    0.95020    1.000
    C9       C        0.06540    0.66860    0.06050    1.000
    C10      C        0.17290    0.81450    0.11030    1.000
    C11      C        0.34110    0.15370    0.88720    1.000
    C12      C        0.38580    0.29860    0.94190    1.000
    C13      C        0.80070    0.65890    0.60420    1.000
    C14      C        0.88610    0.59230    0.54980    1.000
    C15      C        0.06540    0.66860    0.43950    1.000
    C16      C        0.17290    0.81450    0.38970    1.000
    C17      C        0.34110    0.15370    0.61280    1.000
    C18      C        0.38580    0.29860    0.55810    1.000
    C19      C        0.65890    0.80070    0.39580    1.000
    C20      C        0.59230    0.88610    0.45020    1.000
    C21      C        0.66860    0.06540    0.56050    1.000
    C22      C        0.81450    0.17290    0.61030    1.000
    C23      C        0.15370    0.34110    0.38720    1.000
    C24      C        0.29860    0.38580    0.44190    1.000
    O1       O        0.80670    0.83090    0.09900    1.000
    O2       O        0.55840    0.70380    0.15440    1.000
    O3       O        0.72250    0.99550    0.00170    1.000
    O4       O        0.78690    0.24850    0.83590    1.000
    O5       O        0.95190    0.17510    0.90480    1.000
    O6       O        0.02710    0.20410    0.09920    1.000
    O7       O        0.16590    0.43670    0.16610    1.000
    O8       O        0.83090    0.80670    0.90100    1.000
    O9       O        0.70380    0.55840    0.84560    1.000
    O10      O        0.99550    0.72250    0.99830    1.000
    O11      O        0.24850    0.78690    0.16410    1.000
    O12      O        0.17510    0.95190    0.09520    1.000
    O13      O        0.20410    0.02710    0.90080    1.000
    O14      O        0.43670    0.16590    0.83390    1.000
    O15      O        0.83090    0.80670    0.59900    1.000
    O16      O        0.70380    0.55840    0.65440    1.000
    O17      O        0.99550    0.72250    0.50170    1.000
    O18      O        0.24850    0.78690    0.33590    1.000
    O19      O        0.17510    0.95190    0.40480    1.000
    O20      O        0.20410    0.02710    0.59920    1.000
    O21      O        0.43670    0.16590    0.66610    1.000
    O22      O        0.80670    0.83090    0.40100    1.000
    O23      O        0.55840    0.70380    0.34560    1.000
    O24      O        0.72250    0.99550    0.49830    1.000
    O25      O        0.78690    0.24850    0.66410    1.000
    O26      O        0.95190    0.17510    0.59520    1.000
    O27      O        0.02710    0.20410    0.40080    1.000
    O28      O        0.16590    0.43670    0.33390    1.000
    O29      O        0.26030    0.26030    0.00000    1.000
    O30      O        0.26030    0.26030    0.50000    1.000
