# CIF file generated by openbabel 3.1.0, see https://openbabel.org
data_I
_chemical_name_common 'image0'
_cell_length_a 15.377
_cell_length_b 15.377
_cell_length_c 9.915
_cell_angle_alpha 90
_cell_angle_beta 90
_cell_angle_gamma 90
_space_group_name_H-M_alt 'P 1'
_space_group_name_Hall 'P 1'
loop_
    _symmetry_equiv_pos_as_xyz
    x,y,z
loop_
    _atom_site_label
    _atom_site_type_symbol
    _atom_site_fract_x
    _atom_site_fract_y
    _atom_site_fract_z
    _atom_site_occupancy
    O1       O        0.03106    0.87113    0.12089    1.000
    C1       C        0.88646    0.74406    0.87942    1.000
    H1       H        0.91090    0.76240    0.79850    1.000
    C2       C        0.81200    0.69346    0.87950    1.000
    H2       H        0.78740    0.67630    0.79800    1.000
    O2       O        0.96894    0.12887    0.12089    1.000
    C3       C        0.11354    0.25594    0.87942    1.000
    H3       H        0.08910    0.23760    0.79850    1.000
    C4       C        0.18800    0.30654    0.87950    1.000
    H4       H        0.21260    0.32370    0.79800    1.000
    O3       O        0.12887    0.03106    0.12089    1.000
    C5       C        0.25594    0.88646    0.87942    1.000
    H5       H        0.23760    0.91090    0.79850    1.000
    C6       C        0.30654    0.81200    0.87950    1.000
    H6       H        0.32370    0.78740    0.79800    1.000
    O4       O        0.87113    0.96894    0.12089    1.000
    C7       C        0.74406    0.11354    0.87942    1.000
    H7       H        0.76240    0.08910    0.79850    1.000
    C8       C        0.69346    0.18800    0.87950    1.000
    H8       H        0.67630    0.21260    0.79800    1.000
    O5       O        0.96894    0.87113    0.37911    1.000
    C9       C        0.11354    0.74406    0.62058    1.000
    H9       H        0.08910    0.76240    0.70150    1.000
    C10      C        0.18800    0.69346    0.62050    1.000
    H10      H        0.21260    0.67630    0.70200    1.000
    O6       O        0.03106    0.12887    0.37911    1.000
    C11      C        0.88646    0.25594    0.62058    1.000
    H11      H        0.91090    0.23760    0.70150    1.000
    C12      C        0.81200    0.30654    0.62050    1.000
    H12      H        0.78740    0.32370    0.70200    1.000
    O7       O        0.87113    0.03106    0.37911    1.000
    C13      C        0.74406    0.88646    0.62058    1.000
    H13      H        0.76240    0.91090    0.70150    1.000
    C14      C        0.69346    0.81200    0.62050    1.000
    H14      H        0.67630    0.78740    0.70200    1.000
    O8       O        0.12887    0.96894    0.37911    1.000
    C15      C        0.25594    0.11354    0.62058    1.000
    H15      H        0.23760    0.08910    0.70150    1.000
    C16      C        0.30654    0.18800    0.62050    1.000
    H16      H        0.32370    0.21260    0.70200    1.000
    O9       O        0.96894    0.12887    0.87911    1.000
    C17      C        0.11354    0.25594    0.12058    1.000
    H17      H        0.08910    0.23760    0.20150    1.000
    C18      C        0.18800    0.30654    0.12050    1.000
    H18      H        0.21260    0.32370    0.20200    1.000
    O10      O        0.03106    0.87113    0.87911    1.000
    C19      C        0.88646    0.74406    0.12058    1.000
    H19      H        0.91090    0.76240    0.20150    1.000
    C20      C        0.81200    0.69346    0.12050    1.000
    H20      H        0.78740    0.67630    0.20200    1.000
    O11      O        0.87113    0.96894    0.87911    1.000
    C21      C        0.74406    0.11354    0.12058    1.000
    H21      H        0.76240    0.08910    0.20150    1.000
    C22      C        0.69346    0.18800    0.12050    1.000
    H22      H        0.67630    0.21260    0.20200    1.000
    O12      O        0.12887    0.03106    0.87911    1.000
    C23      C        0.25594    0.88646    0.12058    1.000
    H23      H        0.23760    0.91090    0.20150    1.000
    C24      C        0.30654    0.81200    0.12050    1.000
    H24      H        0.32370    0.78740    0.20200    1.000
    O13      O        0.03106    0.12887    0.62089    1.000
    C25      C        0.88646    0.25594    0.37942    1.000
    H25      H        0.91090    0.23760    0.29850    1.000
    C26      C        0.81200    0.30654    0.37950    1.000
    H26      H        0.78740    0.32370    0.29800    1.000
    O14      O        0.96894    0.87113    0.62089    1.000
    C27      C        0.11354    0.74406    0.37942    1.000
    H27      H        0.08910    0.76240    0.29850    1.000
    C28      C        0.18800    0.69346    0.37950    1.000
    H28      H        0.21260    0.67630    0.29800    1.000
    O15      O        0.12887    0.96894    0.62089    1.000
    C29      C        0.25594    0.11354    0.37942    1.000
    H29      H        0.23760    0.08910    0.29850    1.000
    C30      C        0.30654    0.18800    0.37950    1.000
    H30      H        0.32370    0.21260    0.29800    1.000
    O16      O        0.87113    0.03106    0.62089    1.000
    C31      C        0.74406    0.88646    0.37942    1.000
    H31      H        0.76240    0.91090    0.29850    1.000
    C32      C        0.69346    0.81200    0.37950    1.000
    H32      H        0.67630    0.78740    0.29800    1.000
    Sm1      Sm       0.00000    0.00000    0.25000    1.000
    Sm2      Sm       0.00000    0.00000    0.75000    1.000
    S1       S        0.02635    0.81898    0.00000    1.000
    N1       N        0.53032    0.62897    0.00000    1.000
    O17      O        0.08936    0.75032    0.00000    1.000
    C33      C        0.92388    0.76685    0.00000    1.000
    C34      C        0.77357    0.66802    0.00000    1.000
    C35      C        0.68939    0.61760    0.00000    1.000
    C36      C        0.61372    0.66597    0.00000    1.000
    C37      C        0.60528    0.75694    0.00000    1.000
    H33      H        0.65110    0.79640    0.00000    1.000
    C38      C        0.52193    0.77765    0.00000    1.000
    H34      H        0.49900    0.83360    0.00000    1.000
    C39      C        0.47265    0.69739    0.00000    1.000
    S2       S        0.97365    0.18102    0.00000    1.000
    N2       N        0.46968    0.37103    0.00000    1.000
    O18      O        0.91064    0.24968    0.00000    1.000
    C40      C        0.07612    0.23315    0.00000    1.000
    C41      C        0.22643    0.33198    0.00000    1.000
    C42      C        0.31061    0.38240    0.00000    1.000
    C43      C        0.38628    0.33403    0.00000    1.000
    C44      C        0.39472    0.24306    0.00000    1.000
    H35      H        0.34890    0.20360    0.00000    1.000
    C45      C        0.47807    0.22235    0.00000    1.000
    H36      H        0.50100    0.16640    0.00000    1.000
    C46      C        0.52735    0.30261    0.00000    1.000
    S3       S        0.18102    0.02635    0.00000    1.000
    N3       N        0.37103    0.53032    0.00000    1.000
    O19      O        0.24968    0.08936    0.00000    1.000
    C47      C        0.23315    0.92388    0.00000    1.000
    C48      C        0.33198    0.77357    0.00000    1.000
    C49      C        0.38240    0.68939    0.00000    1.000
    C50      C        0.33403    0.61372    0.00000    1.000
    C51      C        0.24306    0.60528    0.00000    1.000
    H37      H        0.20360    0.65110    0.00000    1.000
    C52      C        0.22235    0.52193    0.00000    1.000
    H38      H        0.16640    0.49900    0.00000    1.000
    C53      C        0.30261    0.47265    0.00000    1.000
    S4       S        0.81898    0.97365    0.00000    1.000
    N4       N        0.62897    0.46968    0.00000    1.000
    O20      O        0.75032    0.91064    0.00000    1.000
    C54      C        0.76685    0.07612    0.00000    1.000
    C55      C        0.66802    0.22643    0.00000    1.000
    C56      C        0.61760    0.31061    0.00000    1.000
    C57      C        0.66597    0.38628    0.00000    1.000
    C58      C        0.75694    0.39472    0.00000    1.000
    H39      H        0.79640    0.34890    0.00000    1.000
    C59      C        0.77765    0.47807    0.00000    1.000
    H40      H        0.83360    0.50100    0.00000    1.000
    C60      C        0.69739    0.52735    0.00000    1.000
    S5       S        0.97365    0.81898    0.50000    1.000
    N5       N        0.46968    0.62897    0.50000    1.000
    O21      O        0.91064    0.75032    0.50000    1.000
    C61      C        0.07612    0.76685    0.50000    1.000
    C62      C        0.22643    0.66802    0.50000    1.000
    C63      C        0.31061    0.61760    0.50000    1.000
    C64      C        0.38628    0.66597    0.50000    1.000
    C65      C        0.39472    0.75694    0.50000    1.000
    H41      H        0.34890    0.79640    0.50000    1.000
    C66      C        0.47807    0.77765    0.50000    1.000
    H42      H        0.50100    0.83360    0.50000    1.000
    C67      C        0.52735    0.69739    0.50000    1.000
    S6       S        0.02635    0.18102    0.50000    1.000
    N6       N        0.53032    0.37103    0.50000    1.000
    O22      O        0.08936    0.24968    0.50000    1.000
    C68      C        0.92388    0.23315    0.50000    1.000
    C69      C        0.77357    0.33198    0.50000    1.000
    C70      C        0.68939    0.38240    0.50000    1.000
    C71      C        0.61372    0.33403    0.50000    1.000
    C72      C        0.60528    0.24306    0.50000    1.000
    H43      H        0.65110    0.20360    0.50000    1.000
    C73      C        0.52193    0.22235    0.50000    1.000
    H44      H        0.49900    0.16640    0.50000    1.000
    C74      C        0.47265    0.30261    0.50000    1.000
    S7       S        0.81898    0.02635    0.50000    1.000
    N7       N        0.62897    0.53032    0.50000    1.000
    O23      O        0.75032    0.08936    0.50000    1.000
    C75      C        0.76685    0.92388    0.50000    1.000
    C76      C        0.66802    0.77357    0.50000    1.000
    C77      C        0.61760    0.68939    0.50000    1.000
    C78      C        0.66597    0.61372    0.50000    1.000
    C79      C        0.75694    0.60528    0.50000    1.000
    H45      H        0.79640    0.65110    0.50000    1.000
    C80      C        0.77765    0.52193    0.50000    1.000
    H46      H        0.83360    0.49900    0.50000    1.000
    C81      C        0.69739    0.47265    0.50000    1.000
    S8       S        0.18102    0.97365    0.50000    1.000
    N8       N        0.37103    0.46968    0.50000    1.000
    O24      O        0.24968    0.91064    0.50000    1.000
    C82      C        0.23315    0.07612    0.50000    1.000
    C83      C        0.33198    0.22643    0.50000    1.000
    C84      C        0.38240    0.31061    0.50000    1.000
    C85      C        0.33403    0.38628    0.50000    1.000
    C86      C        0.24306    0.39472    0.50000    1.000
    H47      H        0.20360    0.34890    0.50000    1.000
    C87      C        0.22235    0.47807    0.50000    1.000
    H48      H        0.16640    0.50100    0.50000    1.000
    C88      C        0.30261    0.52735    0.50000    1.000
