# CIF file generated by openbabel 3.1.0, see https://openbabel.org
data_I
_chemical_name_common 'VISTOG_clean'
_cell_length_a 11.358
_cell_length_b 12.366
_cell_length_c 12.619
_cell_angle_alpha 90
_cell_angle_beta 90
_cell_angle_gamma 104.05
_space_group_name_H-M_alt 'P 1'
_space_group_name_Hall 'P 1'
loop_
    _symmetry_equiv_pos_as_xyz
    x,y,z
loop_
    _atom_site_label
    _atom_site_type_symbol
    _atom_site_fract_x
    _atom_site_fract_y
    _atom_site_fract_z
    _atom_site_occupancy
    Cd1      Cd       0.51550    0.05598    0.37133    1.000
    Cd2      Cd       0.30882    0.12996    0.97674    1.000
    Cd3      Cd       0.73600    0.48972    0.24401    1.000
    Cd4      Cd       0.98450    0.94402    0.87133    1.000
    Cd5      Cd       0.19118    0.87004    0.47674    1.000
    Cd6      Cd       0.76400    0.51028    0.74401    1.000
    Cd7      Cd       0.48450    0.94402    0.62867    1.000
    Cd8      Cd       0.69118    0.87004    0.02326    1.000
    Cd9      Cd       0.26400    0.51028    0.75599    1.000
    Cd10     Cd       0.01550    0.05598    0.12867    1.000
    Cd11     Cd       0.80882    0.12996    0.52326    1.000
    Cd12     Cd       0.23600    0.48972    0.25599    1.000
    H1       H        0.64860    0.90900    0.48720    1.000
    H2       H        0.85140    0.09100    0.98720    1.000
    H3       H        0.35140    0.09100    0.51280    1.000
    H4       H        0.14860    0.90900    0.01280    1.000
    C1       C        0.61820    0.23410    0.36150    1.000
    C2       C        0.25970    0.27530    0.90620    1.000
    C3       C        0.43370    0.48620    0.25920    1.000
    C4       C        0.35510    0.10020    0.14280    1.000
    C5       C        0.57990    0.95590    0.24770    1.000
    C6       C        0.88180    0.76590    0.86150    1.000
    C7       C        0.24030    0.72470    0.40620    1.000
    C8       C        0.06630    0.51380    0.75920    1.000
    C9       C        0.14490    0.89980    0.64280    1.000
    C10      C        0.92010    0.04410    0.74770    1.000
    C11      C        0.38180    0.76590    0.63850    1.000
    C12      C        0.74030    0.72470    0.09380    1.000
    C13      C        0.56630    0.51380    0.74080    1.000
    C14      C        0.64490    0.89980    0.85720    1.000
    C15      C        0.42010    0.04410    0.75230    1.000
    C16      C        0.11820    0.23410    0.13850    1.000
    C17      C        0.75970    0.27530    0.59380    1.000
    C18      C        0.93370    0.48620    0.24080    1.000
    C19      C        0.85510    0.10020    0.35720    1.000
    C20      C        0.07990    0.95590    0.25230    1.000
    N1       N        0.67240    0.32280    0.34290    1.000
    N2       N        0.24210    0.35120    0.86300    1.000
    N3       N        0.53630    0.49000    0.25730    1.000
    N4       N        0.38320    0.08740    0.22710    1.000
    N5       N        0.61770    0.93280    0.17000    1.000
    N6       N        0.82760    0.67720    0.84290    1.000
    N7       N        0.25790    0.64880    0.36300    1.000
    N8       N        0.96370    0.51000    0.75730    1.000
    N9       N        0.11680    0.91260    0.72710    1.000
    N10      N        0.88230    0.06720    0.67000    1.000
    N11      N        0.32760    0.67720    0.65710    1.000
    N12      N        0.75790    0.64880    0.13700    1.000
    N13      N        0.46370    0.51000    0.74270    1.000
    N14      N        0.61680    0.91260    0.77290    1.000
    N15      N        0.38230    0.06720    0.83000    1.000
    N16      N        0.17240    0.32280    0.15710    1.000
    N17      N        0.74210    0.35120    0.63700    1.000
    N18      N        0.03630    0.49000    0.24270    1.000
    N19      N        0.88320    0.08740    0.27290    1.000
    N20      N        0.11770    0.93280    0.33000    1.000
    O1       O        0.62820    0.99700    0.51120    1.000
    O2       O        0.87180    0.00300    0.01120    1.000
    O3       O        0.37180    0.00300    0.48880    1.000
    O4       O        0.12820    0.99700    0.98880    1.000
