# CIF file generated by openbabel 3.1.0, see https://openbabel.org
data_I
_chemical_name_common 'image0'
_cell_length_a 5.1803
_cell_length_b 10.6508
_cell_length_c 15.2914
_cell_angle_alpha 82.591
_cell_angle_beta 85.945
_cell_angle_gamma 82.739
_space_group_name_H-M_alt 'P 1'
_space_group_name_Hall 'P 1'
loop_
    _symmetry_equiv_pos_as_xyz
    x,y,z
loop_
    _atom_site_label
    _atom_site_type_symbol
    _atom_site_fract_x
    _atom_site_fract_y
    _atom_site_fract_z
    _atom_site_occupancy
    C1       C        0.98180    0.63060    0.48763    1.000
    H1       H        0.96760    0.72110    0.47920    1.000
    C2       C        0.08040    0.56660    0.56562    1.000
    C3       C        0.09730    0.43230    0.57875    1.000
    C4       C        0.18550    0.35580    0.66256    1.000
    C5       C        0.41110    0.26940    0.66305    1.000
    H2       H        0.50440    0.25420    0.60890    1.000
    C6       C        0.50010    0.20540    0.74190    1.000
    H3       H        0.65760    0.14910    0.74180    1.000
    C7       C        0.36000    0.22320    0.82141    1.000
    C8       C        0.12800    0.30520    0.82068    1.000
    H4       H        0.02690    0.31510    0.87420    1.000
    C9       C        0.04510    0.37190    0.74236    1.000
    H5       H        0.88970    0.42980    0.74270    1.000
    C10      C        0.46230    0.15930    0.90697    1.000
    C11      C        0.16540    0.64090    0.63316    1.000
    C12      C        0.39500    0.60150    0.67556    1.000
    H6       H        0.50880    0.53110    0.65780    1.000
    C13      C        0.46020    0.66360    0.74334    1.000
    H7       H        0.61640    0.63450    0.77260    1.000
    C14      C        0.29740    0.76900    0.76906    1.000
    C15      C        0.07450    0.81310    0.72363    1.000
    H8       H        0.96610    0.88670    0.73900    1.000
    C16      C        0.00980    0.75010    0.65609    1.000
    H9       H        0.85800    0.78140    0.62490    1.000
    C17      C        0.35290    0.82980    0.84692    1.000
    O1       O        0.29980    0.14994    0.97457    1.000
    O2       O        0.69900    0.12052    0.90969    1.000
    O3       O        0.19380    0.91006    0.87796    1.000
    O4       O        0.57930    0.78880    0.87851    1.000
    H10      H        0.59860    0.82660    0.92210    1.000
    C18      C        0.01820    0.36940    0.51237    1.000
    H11      H        0.03240    0.27890    0.52080    1.000
    C19      C        0.91960    0.43340    0.43438    1.000
    C20      C        0.90270    0.56770    0.42125    1.000
    C21      C        0.81450    0.64420    0.33744    1.000
    C22      C        0.58890    0.73060    0.33695    1.000
    H12      H        0.49560    0.74580    0.39110    1.000
    C23      C        0.49990    0.79460    0.25810    1.000
    H13      H        0.34240    0.85090    0.25820    1.000
    C24      C        0.64000    0.77680    0.17859    1.000
    C25      C        0.87200    0.69480    0.17932    1.000
    H14      H        0.97310    0.68490    0.12580    1.000
    C26      C        0.95490    0.62810    0.25764    1.000
    H15      H        0.11030    0.57020    0.25730    1.000
    C27      C        0.53770    0.84070    0.09303    1.000
    C28      C        0.83460    0.35910    0.36684    1.000
    C29      C        0.60500    0.39850    0.32444    1.000
    H16      H        0.49120    0.46890    0.34220    1.000
    C30      C        0.53980    0.33640    0.25666    1.000
    H17      H        0.38360    0.36550    0.22740    1.000
    C31      C        0.70260    0.23100    0.23094    1.000
    C32      C        0.92550    0.18690    0.27637    1.000
    H18      H        0.03390    0.11330    0.26100    1.000
    C33      C        0.99020    0.24990    0.34391    1.000
    H19      H        0.14200    0.21860    0.37510    1.000
    C34      C        0.64710    0.17020    0.15308    1.000
    O5       O        0.70020    0.85006    0.02543    1.000
    O6       O        0.30100    0.87948    0.09031    1.000
    O7       O        0.80620    0.08994    0.12204    1.000
    O8       O        0.42070    0.21120    0.12149    1.000
    H20      H        0.40140    0.17340    0.07790    1.000
    Ca1      Ca       0.00000    0.00000    0.00000    1.000
