# CIF file generated by openbabel 3.1.0, see https://openbabel.org
data_I
_chemical_name_common 'OCUPUY_clean'
_cell_length_a 7.433
_cell_length_b 9.3673
_cell_length_c 12.4478
_cell_angle_alpha 112.102
_cell_angle_beta 107.371
_cell_angle_gamma 90.0001
_space_group_name_H-M_alt 'P 1'
_space_group_name_Hall 'P 1'
loop_
    _symmetry_equiv_pos_as_xyz
    x,y,z
loop_
    _atom_site_label
    _atom_site_type_symbol
    _atom_site_fract_x
    _atom_site_fract_y
    _atom_site_fract_z
    _atom_site_occupancy
    V1       V        0.53794    0.24417    0.48834    1.000
    V2       V        0.95040    0.24417    0.48834    1.000
    V3       V        0.46206    0.75583    0.51166    1.000
    V4       V        0.04960    0.75583    0.51166    1.000
    P1       P        0.81145    0.57929    0.62290    1.000
    P2       P        0.81145    0.04361    0.62290    1.000
    P3       P        0.18855    0.95639    0.37710    1.000
    P4       P        0.18855    0.42071    0.37710    1.000
    H1       H        0.99750    0.52120    0.78060    1.000
    H2       H        0.83100    0.79690    0.87800    1.000
    H3       H        0.78310    0.25940    0.78060    1.000
    H4       H        0.04700    0.08110    0.87800    1.000
    H5       H        0.00250    0.74060    0.21940    1.000
    H6       H        0.16900    0.91890    0.12200    1.000
    H7       H        0.21690    0.47880    0.21940    1.000
    H8       H        0.95300    0.20310    0.12200    1.000
    H9       H        0.00250    0.47880    0.21940    1.000
    H10      H        0.16900    0.20310    0.12200    1.000
    H11      H        0.21690    0.74060    0.21940    1.000
    H12      H        0.95300    0.91890    0.12200    1.000
    H13      H        0.99750    0.25940    0.78060    1.000
    H14      H        0.83100    0.08110    0.87800    1.000
    H15      H        0.78310    0.52120    0.78060    1.000
    H16      H        0.04700    0.79690    0.87800    1.000
    H17      H        0.64690    0.20990    0.29380    1.000
    H18      H        0.64690    0.08390    0.29380    1.000
    H19      H        0.35310    0.91610    0.70620    1.000
    H20      H        0.35310    0.79010    0.70620    1.000
    H21      H        0.89270    0.64770    0.00000    1.000
    H22      H        0.10730    0.35230    0.00000    1.000
    H23      H        0.10730    0.64770    0.00000    1.000
    H24      H        0.89270    0.35230    0.00000    1.000
    C1       C        0.88649    0.57949    0.77298    1.000
    C2       C        0.94068    0.73688    0.88136    1.000
    C3       C        0.88649    0.19349    0.77298    1.000
    C4       C        0.94068    0.14448    0.88136    1.000
    C5       C        0.11351    0.80651    0.22702    1.000
    C6       C        0.05932    0.85552    0.11864    1.000
    C7       C        0.11351    0.42051    0.22702    1.000
    C8       C        0.05932    0.26312    0.11864    1.000
    C9       C        0.00000    0.71030    0.00000    1.000
    C10      C        0.00000    0.28970    0.00000    1.000
    O1       O        0.63088    0.65487    0.60700    1.000
    O2       O        0.97612    0.95213    0.60700    1.000
    O3       O        0.36912    0.04787    0.39300    1.000
    O4       O        0.02388    0.34513    0.39300    1.000
    O5       O        0.36912    0.34513    0.39300    1.000
    O6       O        0.02388    0.04787    0.39300    1.000
    O7       O        0.63088    0.95213    0.60700    1.000
    O8       O        0.97612    0.65487    0.60700    1.000
    O9       O        0.76565    0.40470    0.53130    1.000
    O10      O        0.76565    0.12660    0.53130    1.000
    O11      O        0.23435    0.87340    0.46870    1.000
    O12      O        0.23435    0.59530    0.46870    1.000
    O13      O        0.66605    0.16605    0.33210    1.000
    O14      O        0.33395    0.83395    0.66790    1.000
