# CIF file generated by openbabel 3.1.0, see https://openbabel.org
data_I
_chemical_name_common 'FIRMUQ_clean'
_cell_length_a 15.1738
_cell_length_b 15.1738
_cell_length_c 18.859
_cell_angle_alpha 90
_cell_angle_beta 90
_cell_angle_gamma 120
_space_group_name_H-M_alt 'P 1'
_space_group_name_Hall 'P 1'
loop_
    _symmetry_equiv_pos_as_xyz
    x,y,z
loop_
    _atom_site_label
    _atom_site_type_symbol
    _atom_site_fract_x
    _atom_site_fract_y
    _atom_site_fract_z
    _atom_site_occupancy
    Ni1      Ni       0.00000    0.83518    0.83333    1.000
    Ni2      Ni       0.16482    0.16482    0.16667    1.000
    Ni3      Ni       0.83518    0.00000    0.50000    1.000
    H1       H        0.44000    0.49700    0.26490    1.000
    H2       H        0.99170    0.91410    0.97863    1.000
    H3       H        0.50300    0.94300    0.59823    1.000
    H4       H        0.19360    0.84900    0.77793    1.000
    H5       H        0.94740    0.65720    0.73710    1.000
    H6       H        0.00830    0.92240    0.68803    1.000
    H7       H        0.05260    0.70980    0.92957    1.000
    H8       H        0.91410    0.99170    0.35470    1.000
    H9       H        0.92240    0.00830    0.64530    1.000
    H10      H        0.89500    0.87000    0.07883    1.000
    H11      H        0.70980    0.05260    0.40377    1.000
    H12      H        0.10250    0.39920    0.01137    1.000
    H13      H        0.13000    0.02500    0.41217    1.000
    H14      H        0.56000    0.05700    0.40177    1.000
    H15      H        0.15100    0.34460    0.11127    1.000
    H16      H        0.07760    0.08590    0.02137    1.000
    H17      H        0.08590    0.07760    0.31197    1.000
    H18      H        0.65720    0.94740    0.59623    1.000
    H19      H        0.97500    0.10500    0.74550    1.000
    H20      H        0.60080    0.70330    0.34470    1.000
    H21      H        0.84900    0.19360    0.55540    1.000
    H22      H        0.87000    0.89500    0.25450    1.000
    H23      H        0.05700    0.56000    0.93157    1.000
    H24      H        0.89750    0.29670    0.65530    1.000
    H25      H        0.80640    0.65540    0.88873    1.000
    H26      H        0.29020    0.34280    0.26290    1.000
    H27      H        0.49700    0.44000    0.06843    1.000
    H28      H        0.29670    0.89750    0.67803    1.000
    H29      H        0.70330    0.60080    0.98863    1.000
    H30      H        0.34280    0.29020    0.07043    1.000
    H31      H        0.34460    0.15100    0.22207    1.000
    H32      H        0.02500    0.13000    0.92117    1.000
    H33      H        0.94300    0.50300    0.73510    1.000
    H34      H        0.65540    0.80640    0.44460    1.000
    H35      H        0.10500    0.97500    0.58783    1.000
    H36      H        0.39920    0.10250    0.32197    1.000
    C1       C        0.17583    0.87433    0.73889    1.000
    C2       C        0.36325    0.33198    0.11029    1.000
    C3       C        0.87573    0.82473    0.04104    1.000
    C4       C        0.81343    0.78873    0.74345    1.000
    C5       C        0.21058    0.94130    0.62157    1.000
    C6       C        0.27799    0.98780    0.96327    1.000
    C7       C        0.58281    0.58281    0.16667    1.000
    C8       C        0.72201    0.70981    0.70339    1.000
    C9       C        0.17527    0.05100    0.37438    1.000
    C10      C        0.30150    0.12567    0.26111    1.000
    C11      C        0.02808    0.30327    0.88987    1.000
    C12      C        0.03127    0.66802    0.88971    1.000
    C13      C        0.97192    0.27519    0.77680    1.000
    C14      C        0.56210    0.55220    0.70400    1.000
    C15      C        0.99010    0.43790    0.37067    1.000
    C16      C        0.08216    0.14934    0.01948    1.000
    C17      C        0.82417    0.69850    0.92777    1.000
    C18      C        0.78873    0.81343    0.58988    1.000
    C19      C        0.97530    0.18657    0.41012    1.000
    C20      C        0.63675    0.96873    0.55637    1.000
    C21      C        0.33198    0.36325    0.22304    1.000
    C22      C        0.94130    0.21058    0.71176    1.000
    C23      C        0.12427    0.94900    0.62562    1.000
    C24      C        0.05100    0.17527    0.95896    1.000
    C25      C        0.76139    0.66471    0.98740    1.000
    C26      C        0.94900    0.12427    0.70771    1.000
    C27      C        0.00000    0.51528    0.83333    1.000
    C28      C        0.35290    0.97620    0.92916    1.000
    C29      C        0.69850    0.82417    0.40556    1.000
    C30      C        0.87433    0.17583    0.59444    1.000
    C31      C        0.91784    0.06718    0.64719    1.000
    C32      C        0.96662    0.54440    0.77506    1.000
    C33      C        0.97620    0.35290    0.40417    1.000
    C34      C        0.66471    0.76139    0.34593    1.000
    C35      C        0.57778    0.03338    0.44173    1.000
    C36      C        0.85066    0.93282    0.35281    1.000
    C37      C        0.78942    0.73072    0.04509    1.000
    C38      C        0.30327    0.02808    0.44347    1.000
    C39      C        0.90332    0.23861    0.65407    1.000
    C40      C        0.55220    0.56210    0.62933    1.000
    C41      C        0.48472    0.48472    0.16667    1.000
    C42      C        0.64710    0.62330    0.73750    1.000
    C43      C        0.06718    0.91784    0.68614    1.000
    C44      C        0.02470    0.21127    0.25655    1.000
    C45      C        0.41719    0.00000    0.50000    1.000
    C46      C        0.26928    0.05870    0.37843    1.000
    C47      C        0.72481    0.69673    0.11013    1.000
    C48      C        0.05870    0.26928    0.95491    1.000
    C49      C        0.02380    0.37670    0.26250    1.000
    C50      C        0.51528    0.00000    0.50000    1.000
    C51      C        0.96873    0.63675    0.77696    1.000
    C52      C        0.42222    0.45560    0.22494    1.000
    C53      C        0.69673    0.72481    0.22320    1.000
    C54      C        0.14934    0.08216    0.31386    1.000
    C55      C        0.01220    0.29019    0.29661    1.000
    C56      C        0.62330    0.64710    0.59583    1.000
    C57      C        0.23861    0.90332    0.67926    1.000
    C58      C        0.27519    0.97192    0.55653    1.000
    C59      C        0.98780    0.27799    0.37006    1.000
    C60      C        0.00000    0.41719    0.83333    1.000
    C61      C        0.70981    0.72201    0.62994    1.000
    C62      C        0.12567    0.30150    0.07223    1.000
    C63      C        0.44780    0.00990    0.03734    1.000
    C64      C        0.82473    0.87573    0.29229    1.000
    C65      C        0.93282    0.85066    0.98052    1.000
    C66      C        0.09668    0.33529    0.01260    1.000
    C67      C        0.18657    0.97530    0.92321    1.000
    C68      C        0.37670    0.02380    0.07084    1.000
    C69      C        0.54440    0.96662    0.55827    1.000
    C70      C        0.29019    0.01220    0.03673    1.000
    C71      C        0.03338    0.57778    0.89161    1.000
    C72      C        0.43790    0.99010    0.96266    1.000
    C73      C        0.21127    0.02470    0.07679    1.000
    C74      C        0.66802    0.03127    0.44363    1.000
    C75      C        0.73072    0.78942    0.28824    1.000
    C76      C        0.33529    0.09668    0.32074    1.000
    C77      C        0.45560    0.42222    0.10839    1.000
    C78      C        0.00990    0.44780    0.29600    1.000
    N1       N        0.90889    0.78995    0.92374    1.000
    N2       N        0.00000    0.69702    0.83333    1.000
    N3       N        0.00000    0.24089    0.83333    1.000
    N4       N        0.97290    0.36354    0.77354    1.000
    N5       N        0.75911    0.75911    0.16667    1.000
    N6       N        0.24089    0.00000    0.50000    1.000
    N7       N        0.36354    0.97290    0.55979    1.000
    N8       N        0.60936    0.63646    0.22646    1.000
    N9       N        0.21005    0.11894    0.25708    1.000
    N10      N        0.02710    0.39064    0.89313    1.000
    N11      N        0.09111    0.88106    0.74292    1.000
    N12      N        0.11894    0.21005    0.07626    1.000
    N13      N        0.30298    0.30298    0.16667    1.000
    N14      N        0.39064    0.02710    0.44021    1.000
    N15      N        0.88106    0.09111    0.59041    1.000
    N16      N        0.69702    0.00000    0.50000    1.000
    N17      N        0.78995    0.90889    0.40959    1.000
    N18      N        0.63646    0.60936    0.10687    1.000
    O1       O        0.13080    0.89120    0.89519    1.000
    O2       O        0.86920    0.76040    0.77147    1.000
    O3       O        0.17463    0.05133    0.92188    1.000
    O4       O        0.87670    0.82537    0.58855    1.000
    O5       O        0.76040    0.86920    0.56186    1.000
    O6       O        0.82537    0.87670    0.74478    1.000
    O7       O        0.23960    0.10880    0.10481    1.000
    O8       O        0.94867    0.12330    0.25522    1.000
    O9       O        0.89120    0.13080    0.43814    1.000
    O10      O        0.05133    0.17463    0.41145    1.000
    O11      O        0.10880    0.23960    0.22853    1.000
    O12      O        0.12330    0.94867    0.07812    1.000
    F1       F        0.38856    0.04261    0.14097    1.000
    F2       F        0.02280    0.53106    0.26284    1.000
    F3       F        0.49174    0.46894    0.73716    1.000
    F4       F        0.53106    0.02280    0.07050    1.000
    F5       F        0.34595    0.95739    0.85903    1.000
    F6       F        0.04261    0.38856    0.19237    1.000
    F7       F        0.65405    0.61144    0.80763    1.000
    F8       F        0.61144    0.65405    0.52570    1.000
    F9       F        0.95739    0.34595    0.47430    1.000
    F10      F        0.46894    0.49174    0.59617    1.000
    F11      F        0.97720    0.50826    0.40383    1.000
    F12      F        0.50826    0.97720    0.92950    1.000
