# CIF file generated by openbabel 3.1.0, see https://openbabel.org
data_I
_chemical_name_common 'image0'
_cell_length_a 33.5375
_cell_length_b 33.5375
_cell_length_c 33.5375
_cell_angle_alpha 90
_cell_angle_beta 90
_cell_angle_gamma 90
_space_group_name_H-M_alt 'P 1'
_space_group_name_Hall 'P 1'
loop_
    _symmetry_equiv_pos_as_xyz
    x,y,z
loop_
    _atom_site_label
    _atom_site_type_symbol
    _atom_site_fract_x
    _atom_site_fract_y
    _atom_site_fract_z
    _atom_site_occupancy
    Cu1      Cu       0.06370    0.15852    0.85684    1.000
    O1       O        0.06434    0.10049    0.85236    1.000
    C1       C        0.02989    0.08232    0.86182    1.000
    C2       C        0.01104    0.05689    0.83514    1.000
    H1       H        0.02250    0.05190    0.81010    1.000
    C3       C        0.97565    0.03911    0.84547    1.000
    H2       H        0.96290    0.02190    0.82740    1.000
    C4       C        0.95866    0.04638    0.88236    1.000
    H3       H        0.93440    0.03410    0.88940    1.000
    C5       C        0.97751    0.07180    0.90892    1.000
    H4       H        0.96590    0.07670    0.93390    1.000
    C6       C        0.01300    0.09001    0.89926    1.000
    C7       C        0.03471    0.11660    0.92819    1.000
    H5       H        0.01940    0.11850    0.95300    1.000
    H6       H        0.06070    0.10480    0.93460    1.000
    N1       N        0.04076    0.15728    0.91146    1.000
    H7       H        0.01910    0.16750    0.90860    1.000
    C8       C        0.06506    0.18610    0.93495    1.000
    C9       C        0.04628    0.19768    0.97508    1.000
    H8       H        0.03280    0.22350    0.97300    1.000
    H9       H        0.02670    0.17760    0.98340    1.000
    C10      C        0.07980    0.19990    0.00460    1.000
    H10      H        0.07030    0.19600    0.03200    1.000
    H11      H        0.09400    0.22540    0.00280    1.000
    C11      C        0.10660    0.16460    0.99060    1.000
    H12      H        0.13350    0.16680    0.00170    1.000
    H13      H        0.09510    0.13900    0.99860    1.000
    C12      C        0.10703    0.16893    0.94571    1.000
    H14      H        0.11120    0.14300    0.93280    1.000
    H15      H        0.12820    0.18720    0.93730    1.000
    C13      C        0.07233    0.22193    0.90760    1.000
    O2       O        0.07344    0.21442    0.87002    1.000
    O3       O        0.07794    0.25497    0.92260    1.000
    C14      C        0.11970    0.19390    0.98220    1.000
    Cu2      Cu       0.56370    0.65852    0.35684    1.000
    O4       O        0.56434    0.60049    0.35236    1.000
    C15      C        0.52989    0.58232    0.36182    1.000
    C16      C        0.51104    0.55689    0.33514    1.000
    H16      H        0.52250    0.55190    0.31010    1.000
    C17      C        0.47565    0.53911    0.34547    1.000
    H17      H        0.46290    0.52190    0.32740    1.000
    C18      C        0.45866    0.54638    0.38236    1.000
    H18      H        0.43440    0.53410    0.38940    1.000
    C19      C        0.47751    0.57180    0.40892    1.000
    H19      H        0.46590    0.57670    0.43390    1.000
    C20      C        0.51300    0.59001    0.39926    1.000
    C21      C        0.53471    0.61660    0.42819    1.000
    H20      H        0.51940    0.61850    0.45300    1.000
    H21      H        0.56070    0.60480    0.43460    1.000
    N2       N        0.54076    0.65728    0.41146    1.000
    H22      H        0.51910    0.66750    0.40860    1.000
    C22      C        0.56506    0.68610    0.43495    1.000
    C23      C        0.54628    0.69768    0.47508    1.000
    H23      H        0.53280    0.72350    0.47300    1.000
    H24      H        0.52670    0.67760    0.48340    1.000
    C24      C        0.57980    0.69990    0.50460    1.000
    H25      H        0.57030    0.69600    0.53200    1.000
    H26      H        0.59400    0.72540    0.50280    1.000
    C25      C        0.60660    0.66460    0.49060    1.000
    H27      H        0.63350    0.66680    0.50170    1.000
    H28      H        0.59510    0.63900    0.49860    1.000
    C26      C        0.60703    0.66893    0.44571    1.000
    H29      H        0.61120    0.64300    0.43280    1.000
    H30      H        0.62820    0.68720    0.43730    1.000
    C27      C        0.57233    0.72193    0.40760    1.000
    O5       O        0.57344    0.71442    0.37002    1.000
    O6       O        0.57794    0.75497    0.42260    1.000
    C28      C        0.61970    0.69390    0.48220    1.000
    Cu3      Cu       0.43630    0.84148    0.35684    1.000
    O7       O        0.43566    0.89951    0.35236    1.000
    C29      C        0.47011    0.91768    0.36182    1.000
    C30      C        0.48896    0.94311    0.33514    1.000
    H31      H        0.47750    0.94810    0.31010    1.000
    C31      C        0.52435    0.96089    0.34547    1.000
    H32      H        0.53710    0.97810    0.32740    1.000
    C32      C        0.54134    0.95362    0.38236    1.000
    H33      H        0.56560    0.96590    0.38940    1.000
    C33      C        0.52249    0.92820    0.40892    1.000
    H34      H        0.53410    0.92330    0.43390    1.000
    C34      C        0.48700    0.90999    0.39926    1.000
    C35      C        0.46529    0.88340    0.42819    1.000
    H35      H        0.48060    0.88150    0.45300    1.000
    H36      H        0.43930    0.89520    0.43460    1.000
    N3       N        0.45924    0.84272    0.41146    1.000
    H37      H        0.48090    0.83250    0.40860    1.000
    C36      C        0.43494    0.81390    0.43495    1.000
    C37      C        0.45372    0.80232    0.47508    1.000
    H38      H        0.46720    0.77650    0.47300    1.000
    H39      H        0.47330    0.82240    0.48340    1.000
    C38      C        0.42020    0.80010    0.50460    1.000
    H40      H        0.42970    0.80400    0.53200    1.000
    H41      H        0.40600    0.77460    0.50280    1.000
    C39      C        0.39340    0.83540    0.49060    1.000
    H42      H        0.36650    0.83320    0.50170    1.000
    H43      H        0.40490    0.86100    0.49860    1.000
    C40      C        0.39297    0.83107    0.44571    1.000
    H44      H        0.38880    0.85700    0.43280    1.000
    H45      H        0.37180    0.81280    0.43730    1.000
    C41      C        0.42767    0.77807    0.40760    1.000
    O8       O        0.42656    0.78558    0.37002    1.000
    O9       O        0.42206    0.74503    0.42260    1.000
    C42      C        0.38030    0.80610    0.48220    1.000
    Cu4      Cu       0.93630    0.34148    0.85684    1.000
    O10      O        0.93566    0.39951    0.85236    1.000
    C43      C        0.97011    0.41768    0.86182    1.000
    C44      C        0.98896    0.44311    0.83514    1.000
    H46      H        0.97750    0.44810    0.81010    1.000
    C45      C        0.02435    0.46089    0.84547    1.000
    H47      H        0.03710    0.47810    0.82740    1.000
    C46      C        0.04134    0.45362    0.88236    1.000
    H48      H        0.06560    0.46590    0.88940    1.000
    C47      C        0.02249    0.42820    0.90892    1.000
    H49      H        0.03410    0.42330    0.93390    1.000
    C48      C        0.98700    0.40999    0.89926    1.000
    C49      C        0.96529    0.38340    0.92819    1.000
    H50      H        0.98060    0.38150    0.95300    1.000
    H51      H        0.93930    0.39520    0.93460    1.000
    N4       N        0.95924    0.34272    0.91146    1.000
    H52      H        0.98090    0.33250    0.90860    1.000
    C50      C        0.93494    0.31390    0.93495    1.000
    C51      C        0.95372    0.30232    0.97508    1.000
    H53      H        0.96720    0.27650    0.97300    1.000
    H54      H        0.97330    0.32240    0.98340    1.000
    C52      C        0.92020    0.30010    0.00460    1.000
    H55      H        0.92970    0.30400    0.03200    1.000
    H56      H        0.90600    0.27460    0.00280    1.000
    C53      C        0.89340    0.33540    0.99060    1.000
    H57      H        0.86650    0.33320    0.00170    1.000
    H58      H        0.90490    0.36100    0.99860    1.000
    C54      C        0.89297    0.33107    0.94571    1.000
    H59      H        0.88880    0.35700    0.93280    1.000
    H60      H        0.87180    0.31280    0.93730    1.000
    C55      C        0.92767    0.27807    0.90760    1.000
    O11      O        0.92656    0.28558    0.87002    1.000
    O12      O        0.92206    0.24503    0.92260    1.000
    C56      C        0.88030    0.30610    0.98220    1.000
    Cu5      Cu       0.93630    0.65852    0.64316    1.000
    O13      O        0.93566    0.60049    0.64764    1.000
    C57      C        0.97011    0.58232    0.63818    1.000
    C58      C        0.98896    0.55689    0.66486    1.000
    H61      H        0.97750    0.55190    0.68990    1.000
    C59      C        0.02435    0.53911    0.65453    1.000
    H62      H        0.03710    0.52190    0.67260    1.000
    C60      C        0.04134    0.54638    0.61764    1.000
    H63      H        0.06560    0.53410    0.61060    1.000
    C61      C        0.02249    0.57180    0.59108    1.000
    H64      H        0.03410    0.57670    0.56610    1.000
    C62      C        0.98700    0.59001    0.60074    1.000
    C63      C        0.96529    0.61660    0.57181    1.000
    H65      H        0.98060    0.61850    0.54700    1.000
    H66      H        0.93930    0.60480    0.56540    1.000
    N5       N        0.95924    0.65728    0.58854    1.000
    H67      H        0.98090    0.66750    0.59140    1.000
    C64      C        0.93494    0.68610    0.56505    1.000
    C65      C        0.95372    0.69768    0.52492    1.000
    H68      H        0.96720    0.72350    0.52700    1.000
    H69      H        0.97330    0.67760    0.51660    1.000
    C66      C        0.92020    0.69990    0.49540    1.000
    H70      H        0.92970    0.69600    0.46800    1.000
    H71      H        0.90600    0.72540    0.49720    1.000
    C67      C        0.89340    0.66460    0.50940    1.000
    H72      H        0.86650    0.66680    0.49830    1.000
    H73      H        0.90490    0.63900    0.50140    1.000
    C68      C        0.89297    0.66893    0.55429    1.000
    H74      H        0.88880    0.64300    0.56720    1.000
    H75      H        0.87180    0.68720    0.56270    1.000
    C69      C        0.92767    0.72193    0.59240    1.000
    O14      O        0.92656    0.71442    0.62998    1.000
    O15      O        0.92206    0.75497    0.57740    1.000
    C70      C        0.88030    0.69390    0.51780    1.000
    Cu6      Cu       0.43630    0.15852    0.14316    1.000
    O16      O        0.43566    0.10049    0.14764    1.000
    C71      C        0.47011    0.08232    0.13818    1.000
    C72      C        0.48896    0.05689    0.16486    1.000
    H76      H        0.47750    0.05190    0.18990    1.000
    C73      C        0.52435    0.03911    0.15453    1.000
    H77      H        0.53710    0.02190    0.17260    1.000
    C74      C        0.54134    0.04638    0.11764    1.000
    H78      H        0.56560    0.03410    0.11060    1.000
    C75      C        0.52249    0.07180    0.09108    1.000
    H79      H        0.53410    0.07670    0.06610    1.000
    C76      C        0.48700    0.09001    0.10074    1.000
    C77      C        0.46529    0.11660    0.07181    1.000
    H80      H        0.48060    0.11850    0.04700    1.000
    H81      H        0.43930    0.10480    0.06540    1.000
    N6       N        0.45924    0.15728    0.08854    1.000
    H82      H        0.48090    0.16750    0.09140    1.000
    C78      C        0.43494    0.18610    0.06505    1.000
    C79      C        0.45372    0.19768    0.02492    1.000
    H83      H        0.46720    0.22350    0.02700    1.000
    H84      H        0.47330    0.17760    0.01660    1.000
    C80      C        0.42020    0.19990    0.99540    1.000
    H85      H        0.42970    0.19600    0.96800    1.000
    H86      H        0.40600    0.22540    0.99720    1.000
    C81      C        0.39340    0.16460    0.00940    1.000
    H87      H        0.36650    0.16680    0.99830    1.000
    H88      H        0.40490    0.13900    0.00140    1.000
    C82      C        0.39297    0.16893    0.05429    1.000
    H89      H        0.38880    0.14300    0.06720    1.000
    H90      H        0.37180    0.18720    0.06270    1.000
    C83      C        0.42767    0.22193    0.09240    1.000
    O17      O        0.42656    0.21442    0.12998    1.000
    O18      O        0.42206    0.25497    0.07740    1.000
    C84      C        0.38030    0.19390    0.01780    1.000
    Cu7      Cu       0.56370    0.34148    0.14316    1.000
    O19      O        0.56434    0.39951    0.14764    1.000
    C85      C        0.52989    0.41768    0.13818    1.000
    C86      C        0.51104    0.44311    0.16486    1.000
    H91      H        0.52250    0.44810    0.18990    1.000
    C87      C        0.47565    0.46089    0.15453    1.000
    H92      H        0.46290    0.47810    0.17260    1.000
    C88      C        0.45866    0.45362    0.11764    1.000
    H93      H        0.43440    0.46590    0.11060    1.000
    C89      C        0.47751    0.42820    0.09108    1.000
    H94      H        0.46590    0.42330    0.06610    1.000
    C90      C        0.51300    0.40999    0.10074    1.000
    C91      C        0.53471    0.38340    0.07181    1.000
    H95      H        0.51940    0.38150    0.04700    1.000
    H96      H        0.56070    0.39520    0.06540    1.000
    N7       N        0.54076    0.34272    0.08854    1.000
    H97      H        0.51910    0.33250    0.09140    1.000
    C92      C        0.56506    0.31390    0.06505    1.000
    C93      C        0.54628    0.30232    0.02492    1.000
    H98      H        0.53280    0.27650    0.02700    1.000
    H99      H        0.52670    0.32240    0.01660    1.000
    C94      C        0.57980    0.30010    0.99540    1.000
    H100     H        0.57030    0.30400    0.96800    1.000
    H101     H        0.59400    0.27460    0.99720    1.000
    C95      C        0.60660    0.33540    0.00940    1.000
    H102     H        0.63350    0.33320    0.99830    1.000
    H103     H        0.59510    0.36100    0.00140    1.000
    C96      C        0.60703    0.33107    0.05429    1.000
    H104     H        0.61120    0.35700    0.06720    1.000
    H105     H        0.62820    0.31280    0.06270    1.000
    C97      C        0.57233    0.27807    0.09240    1.000
    O20      O        0.57344    0.28558    0.12998    1.000
    O21      O        0.57794    0.24503    0.07740    1.000
    C98      C        0.61970    0.30610    0.01780    1.000
    Cu8      Cu       0.06370    0.84148    0.64316    1.000
    O22      O        0.06434    0.89951    0.64764    1.000
    C99      C        0.02989    0.91768    0.63818    1.000
    C100     C        0.01104    0.94311    0.66486    1.000
    H106     H        0.02250    0.94810    0.68990    1.000
    C101     C        0.97565    0.96089    0.65453    1.000
    H107     H        0.96290    0.97810    0.67260    1.000
    C102     C        0.95866    0.95362    0.61764    1.000
    H108     H        0.93440    0.96590    0.61060    1.000
    C103     C        0.97751    0.92820    0.59108    1.000
    H109     H        0.96590    0.92330    0.56610    1.000
    C104     C        0.01300    0.90999    0.60074    1.000
    C105     C        0.03471    0.88340    0.57181    1.000
    H110     H        0.01940    0.88150    0.54700    1.000
    H111     H        0.06070    0.89520    0.56540    1.000
    N8       N        0.04076    0.84272    0.58854    1.000
    H112     H        0.01910    0.83250    0.59140    1.000
    C106     C        0.06506    0.81390    0.56505    1.000
    C107     C        0.04628    0.80232    0.52492    1.000
    H113     H        0.03280    0.77650    0.52700    1.000
    H114     H        0.02670    0.82240    0.51660    1.000
    C108     C        0.07980    0.80010    0.49540    1.000
    H115     H        0.07030    0.80400    0.46800    1.000
    H116     H        0.09400    0.77460    0.49720    1.000
    C109     C        0.10660    0.83540    0.50940    1.000
    H117     H        0.13350    0.83320    0.49830    1.000
    H118     H        0.09510    0.86100    0.50140    1.000
    C110     C        0.10703    0.83107    0.55429    1.000
    H119     H        0.11120    0.85700    0.56720    1.000
    H120     H        0.12820    0.81280    0.56270    1.000
    C111     C        0.07233    0.77807    0.59240    1.000
    O23      O        0.07344    0.78558    0.62998    1.000
    O24      O        0.07794    0.74503    0.57740    1.000
    C112     C        0.11970    0.80610    0.51780    1.000
    Cu9      Cu       0.85684    0.06370    0.15852    1.000
    O25      O        0.85236    0.06434    0.10049    1.000
    C113     C        0.86182    0.02989    0.08232    1.000
    C114     C        0.83514    0.01104    0.05689    1.000
    H121     H        0.81010    0.02250    0.05190    1.000
    C115     C        0.84547    0.97565    0.03911    1.000
    H122     H        0.82740    0.96290    0.02190    1.000
    C116     C        0.88236    0.95866    0.04638    1.000
    H123     H        0.88940    0.93440    0.03410    1.000
    C117     C        0.90892    0.97751    0.07180    1.000
    H124     H        0.93390    0.96590    0.07670    1.000
    C118     C        0.89926    0.01300    0.09001    1.000
    C119     C        0.92819    0.03471    0.11660    1.000
    H125     H        0.95300    0.01940    0.11850    1.000
    H126     H        0.93460    0.06070    0.10480    1.000
    N9       N        0.91146    0.04076    0.15728    1.000
    H127     H        0.90860    0.01910    0.16750    1.000
    C120     C        0.93495    0.06506    0.18610    1.000
    C121     C        0.97508    0.04628    0.19768    1.000
    H128     H        0.97300    0.03280    0.22350    1.000
    H129     H        0.98340    0.02670    0.17760    1.000
    C122     C        0.00460    0.07980    0.19990    1.000
    H130     H        0.03200    0.07030    0.19600    1.000
    H131     H        0.00280    0.09400    0.22540    1.000
    C123     C        0.99060    0.10660    0.16460    1.000
    H132     H        0.00170    0.13350    0.16680    1.000
    H133     H        0.99860    0.09510    0.13900    1.000
    C124     C        0.94571    0.10703    0.16893    1.000
    H134     H        0.93280    0.11120    0.14300    1.000
    H135     H        0.93730    0.12820    0.18720    1.000
    C125     C        0.90760    0.07233    0.22193    1.000
    O26      O        0.87002    0.07344    0.21442    1.000
    O27      O        0.92260    0.07794    0.25497    1.000
    C126     C        0.98220    0.11970    0.19390    1.000
    Cu10     Cu       0.35684    0.56370    0.65852    1.000
    O28      O        0.35236    0.56434    0.60049    1.000
    C127     C        0.36182    0.52989    0.58232    1.000
    C128     C        0.33514    0.51104    0.55689    1.000
    H136     H        0.31010    0.52250    0.55190    1.000
    C129     C        0.34547    0.47565    0.53911    1.000
    H137     H        0.32740    0.46290    0.52190    1.000
    C130     C        0.38236    0.45866    0.54638    1.000
    H138     H        0.38940    0.43440    0.53410    1.000
    C131     C        0.40892    0.47751    0.57180    1.000
    H139     H        0.43390    0.46590    0.57670    1.000
    C132     C        0.39926    0.51300    0.59001    1.000
    C133     C        0.42819    0.53471    0.61660    1.000
    H140     H        0.45300    0.51940    0.61850    1.000
    H141     H        0.43460    0.56070    0.60480    1.000
    N10      N        0.41146    0.54076    0.65728    1.000
    H142     H        0.40860    0.51910    0.66750    1.000
    C134     C        0.43495    0.56506    0.68610    1.000
    C135     C        0.47508    0.54628    0.69768    1.000
    H143     H        0.47300    0.53280    0.72350    1.000
    H144     H        0.48340    0.52670    0.67760    1.000
    C136     C        0.50460    0.57980    0.69990    1.000
    H145     H        0.53200    0.57030    0.69600    1.000
    H146     H        0.50280    0.59400    0.72540    1.000
    C137     C        0.49060    0.60660    0.66460    1.000
    H147     H        0.50170    0.63350    0.66680    1.000
    H148     H        0.49860    0.59510    0.63900    1.000
    C138     C        0.44571    0.60703    0.66893    1.000
    H149     H        0.43280    0.61120    0.64300    1.000
    H150     H        0.43730    0.62820    0.68720    1.000
    C139     C        0.40760    0.57233    0.72193    1.000
    O29      O        0.37002    0.57344    0.71442    1.000
    O30      O        0.42260    0.57794    0.75497    1.000
    C140     C        0.48220    0.61970    0.69390    1.000
    Cu11     Cu       0.35684    0.43630    0.84148    1.000
    O31      O        0.35236    0.43566    0.89951    1.000
    C141     C        0.36182    0.47011    0.91768    1.000
    C142     C        0.33514    0.48896    0.94311    1.000
    H151     H        0.31010    0.47750    0.94810    1.000
    C143     C        0.34547    0.52435    0.96089    1.000
    H152     H        0.32740    0.53710    0.97810    1.000
    C144     C        0.38236    0.54134    0.95362    1.000
    H153     H        0.38940    0.56560    0.96590    1.000
    C145     C        0.40892    0.52249    0.92820    1.000
    H154     H        0.43390    0.53410    0.92330    1.000
    C146     C        0.39926    0.48700    0.90999    1.000
    C147     C        0.42819    0.46529    0.88340    1.000
    H155     H        0.45300    0.48060    0.88150    1.000
    H156     H        0.43460    0.43930    0.89520    1.000
    N11      N        0.41146    0.45924    0.84272    1.000
    H157     H        0.40860    0.48090    0.83250    1.000
    C148     C        0.43495    0.43494    0.81390    1.000
    C149     C        0.47508    0.45372    0.80232    1.000
    H158     H        0.47300    0.46720    0.77650    1.000
    H159     H        0.48340    0.47330    0.82240    1.000
    C150     C        0.50460    0.42020    0.80010    1.000
    H160     H        0.53200    0.42970    0.80400    1.000
    H161     H        0.50280    0.40600    0.77460    1.000
    C151     C        0.49060    0.39340    0.83540    1.000
    H162     H        0.50170    0.36650    0.83320    1.000
    H163     H        0.49860    0.40490    0.86100    1.000
    C152     C        0.44571    0.39297    0.83107    1.000
    H164     H        0.43280    0.38880    0.85700    1.000
    H165     H        0.43730    0.37180    0.81280    1.000
    C153     C        0.40760    0.42767    0.77807    1.000
    O32      O        0.37002    0.42656    0.78558    1.000
    O33      O        0.42260    0.42206    0.74503    1.000
    C154     C        0.48220    0.38030    0.80610    1.000
    Cu12     Cu       0.85684    0.93630    0.34148    1.000
    O34      O        0.85236    0.93566    0.39951    1.000
    C155     C        0.86182    0.97011    0.41768    1.000
    C156     C        0.83514    0.98896    0.44311    1.000
    H166     H        0.81010    0.97750    0.44810    1.000
    C157     C        0.84547    0.02435    0.46089    1.000
    H167     H        0.82740    0.03710    0.47810    1.000
    C158     C        0.88236    0.04134    0.45362    1.000
    H168     H        0.88940    0.06560    0.46590    1.000
    C159     C        0.90892    0.02249    0.42820    1.000
    H169     H        0.93390    0.03410    0.42330    1.000
    C160     C        0.89926    0.98700    0.40999    1.000
    C161     C        0.92819    0.96529    0.38340    1.000
    H170     H        0.95300    0.98060    0.38150    1.000
    H171     H        0.93460    0.93930    0.39520    1.000
    N12      N        0.91146    0.95924    0.34272    1.000
    H172     H        0.90860    0.98090    0.33250    1.000
    C162     C        0.93495    0.93494    0.31390    1.000
    C163     C        0.97508    0.95372    0.30232    1.000
    H173     H        0.97300    0.96720    0.27650    1.000
    H174     H        0.98340    0.97330    0.32240    1.000
    C164     C        0.00460    0.92020    0.30010    1.000
    H175     H        0.03200    0.92970    0.30400    1.000
    H176     H        0.00280    0.90600    0.27460    1.000
    C165     C        0.99060    0.89340    0.33540    1.000
    H177     H        0.00170    0.86650    0.33320    1.000
    H178     H        0.99860    0.90490    0.36100    1.000
    C166     C        0.94571    0.89297    0.33107    1.000
    H179     H        0.93280    0.88880    0.35700    1.000
    H180     H        0.93730    0.87180    0.31280    1.000
    C167     C        0.90760    0.92767    0.27807    1.000
    O35      O        0.87002    0.92656    0.28558    1.000
    O36      O        0.92260    0.92206    0.24503    1.000
    C168     C        0.98220    0.88030    0.30610    1.000
    Cu13     Cu       0.64316    0.93630    0.65852    1.000
    O37      O        0.64764    0.93566    0.60049    1.000
    C169     C        0.63818    0.97011    0.58232    1.000
    C170     C        0.66486    0.98896    0.55689    1.000
    H181     H        0.68990    0.97750    0.55190    1.000
    C171     C        0.65453    0.02435    0.53911    1.000
    H182     H        0.67260    0.03710    0.52190    1.000
    C172     C        0.61764    0.04134    0.54638    1.000
    H183     H        0.61060    0.06560    0.53410    1.000
    C173     C        0.59108    0.02249    0.57180    1.000
    H184     H        0.56610    0.03410    0.57670    1.000
    C174     C        0.60074    0.98700    0.59001    1.000
    C175     C        0.57181    0.96529    0.61660    1.000
    H185     H        0.54700    0.98060    0.61850    1.000
    H186     H        0.56540    0.93930    0.60480    1.000
    N13      N        0.58854    0.95924    0.65728    1.000
    H187     H        0.59140    0.98090    0.66750    1.000
    C176     C        0.56505    0.93494    0.68610    1.000
    C177     C        0.52492    0.95372    0.69768    1.000
    H188     H        0.52700    0.96720    0.72350    1.000
    H189     H        0.51660    0.97330    0.67760    1.000
    C178     C        0.49540    0.92020    0.69990    1.000
    H190     H        0.46800    0.92970    0.69600    1.000
    H191     H        0.49720    0.90600    0.72540    1.000
    C179     C        0.50940    0.89340    0.66460    1.000
    H192     H        0.49830    0.86650    0.66680    1.000
    H193     H        0.50140    0.90490    0.63900    1.000
    C180     C        0.55429    0.89297    0.66893    1.000
    H194     H        0.56720    0.88880    0.64300    1.000
    H195     H        0.56270    0.87180    0.68720    1.000
    C181     C        0.59240    0.92767    0.72193    1.000
    O38      O        0.62998    0.92656    0.71442    1.000
    O39      O        0.57740    0.92206    0.75497    1.000
    C182     C        0.51780    0.88030    0.69390    1.000
    Cu14     Cu       0.14316    0.43630    0.15852    1.000
    O40      O        0.14764    0.43566    0.10049    1.000
    C183     C        0.13818    0.47011    0.08232    1.000
    C184     C        0.16486    0.48896    0.05689    1.000
    H196     H        0.18990    0.47750    0.05190    1.000
    C185     C        0.15453    0.52435    0.03911    1.000
    H197     H        0.17260    0.53710    0.02190    1.000
    C186     C        0.11764    0.54134    0.04638    1.000
    H198     H        0.11060    0.56560    0.03410    1.000
    C187     C        0.09108    0.52249    0.07180    1.000
    H199     H        0.06610    0.53410    0.07670    1.000
    C188     C        0.10074    0.48700    0.09001    1.000
    C189     C        0.07181    0.46529    0.11660    1.000
    H200     H        0.04700    0.48060    0.11850    1.000
    H201     H        0.06540    0.43930    0.10480    1.000
    N14      N        0.08854    0.45924    0.15728    1.000
    H202     H        0.09140    0.48090    0.16750    1.000
    C190     C        0.06505    0.43494    0.18610    1.000
    C191     C        0.02492    0.45372    0.19768    1.000
    H203     H        0.02700    0.46720    0.22350    1.000
    H204     H        0.01660    0.47330    0.17760    1.000
    C192     C        0.99540    0.42020    0.19990    1.000
    H205     H        0.96800    0.42970    0.19600    1.000
    H206     H        0.99720    0.40600    0.22540    1.000
    C193     C        0.00940    0.39340    0.16460    1.000
    H207     H        0.99830    0.36650    0.16680    1.000
    H208     H        0.00140    0.40490    0.13900    1.000
    C194     C        0.05429    0.39297    0.16893    1.000
    H209     H        0.06720    0.38880    0.14300    1.000
    H210     H        0.06270    0.37180    0.18720    1.000
    C195     C        0.09240    0.42767    0.22193    1.000
    O41      O        0.12998    0.42656    0.21442    1.000
    O42      O        0.07740    0.42206    0.25497    1.000
    C196     C        0.01780    0.38030    0.19390    1.000
    Cu15     Cu       0.14316    0.56370    0.34148    1.000
    O43      O        0.14764    0.56434    0.39951    1.000
    C197     C        0.13818    0.52989    0.41768    1.000
    C198     C        0.16486    0.51104    0.44311    1.000
    H211     H        0.18990    0.52250    0.44810    1.000
    C199     C        0.15453    0.47565    0.46089    1.000
    H212     H        0.17260    0.46290    0.47810    1.000
    C200     C        0.11764    0.45866    0.45362    1.000
    H213     H        0.11060    0.43440    0.46590    1.000
    C201     C        0.09108    0.47751    0.42820    1.000
    H214     H        0.06610    0.46590    0.42330    1.000
    C202     C        0.10074    0.51300    0.40999    1.000
    C203     C        0.07181    0.53471    0.38340    1.000
    H215     H        0.04700    0.51940    0.38150    1.000
    H216     H        0.06540    0.56070    0.39520    1.000
    N15      N        0.08854    0.54076    0.34272    1.000
    H217     H        0.09140    0.51910    0.33250    1.000
    C204     C        0.06505    0.56506    0.31390    1.000
    C205     C        0.02492    0.54628    0.30232    1.000
    H218     H        0.02700    0.53280    0.27650    1.000
    H219     H        0.01660    0.52670    0.32240    1.000
    C206     C        0.99540    0.57980    0.30010    1.000
    H220     H        0.96800    0.57030    0.30400    1.000
    H221     H        0.99720    0.59400    0.27460    1.000
    C207     C        0.00940    0.60660    0.33540    1.000
    H222     H        0.99830    0.63350    0.33320    1.000
    H223     H        0.00140    0.59510    0.36100    1.000
    C208     C        0.05429    0.60703    0.33107    1.000
    H224     H        0.06720    0.61120    0.35700    1.000
    H225     H        0.06270    0.62820    0.31280    1.000
    C209     C        0.09240    0.57233    0.27807    1.000
    O44      O        0.12998    0.57344    0.28558    1.000
    O45      O        0.07740    0.57794    0.24503    1.000
    C210     C        0.01780    0.61970    0.30610    1.000
    Cu16     Cu       0.64316    0.06370    0.84148    1.000
    O46      O        0.64764    0.06434    0.89951    1.000
    C211     C        0.63818    0.02989    0.91768    1.000
    C212     C        0.66486    0.01104    0.94311    1.000
    H226     H        0.68990    0.02250    0.94810    1.000
    C213     C        0.65453    0.97565    0.96089    1.000
    H227     H        0.67260    0.96290    0.97810    1.000
    C214     C        0.61764    0.95866    0.95362    1.000
    H228     H        0.61060    0.93440    0.96590    1.000
    C215     C        0.59108    0.97751    0.92820    1.000
    H229     H        0.56610    0.96590    0.92330    1.000
    C216     C        0.60074    0.01300    0.90999    1.000
    C217     C        0.57181    0.03471    0.88340    1.000
    H230     H        0.54700    0.01940    0.88150    1.000
    H231     H        0.56540    0.06070    0.89520    1.000
    N16      N        0.58854    0.04076    0.84272    1.000
    H232     H        0.59140    0.01910    0.83250    1.000
    C218     C        0.56505    0.06506    0.81390    1.000
    C219     C        0.52492    0.04628    0.80232    1.000
    H233     H        0.52700    0.03280    0.77650    1.000
    H234     H        0.51660    0.02670    0.82240    1.000
    C220     C        0.49540    0.07980    0.80010    1.000
    H235     H        0.46800    0.07030    0.80400    1.000
    H236     H        0.49720    0.09400    0.77460    1.000
    C221     C        0.50940    0.10660    0.83540    1.000
    H237     H        0.49830    0.13350    0.83320    1.000
    H238     H        0.50140    0.09510    0.86100    1.000
    C222     C        0.55429    0.10703    0.83107    1.000
    H239     H        0.56720    0.11120    0.85700    1.000
    H240     H        0.56270    0.12820    0.81280    1.000
    C223     C        0.59240    0.07233    0.77807    1.000
    O47      O        0.62998    0.07344    0.78558    1.000
    O48      O        0.57740    0.07794    0.74503    1.000
    C224     C        0.51780    0.11970    0.80610    1.000
    Cu17     Cu       0.15852    0.85684    0.06370    1.000
    O49      O        0.10049    0.85236    0.06434    1.000
    C225     C        0.08232    0.86182    0.02989    1.000
    C226     C        0.05689    0.83514    0.01104    1.000
    H241     H        0.05190    0.81010    0.02250    1.000
    C227     C        0.03911    0.84547    0.97565    1.000
    H242     H        0.02190    0.82740    0.96290    1.000
    C228     C        0.04638    0.88236    0.95866    1.000
    H243     H        0.03410    0.88940    0.93440    1.000
    C229     C        0.07180    0.90892    0.97751    1.000
    H244     H        0.07670    0.93390    0.96590    1.000
    C230     C        0.09001    0.89926    0.01300    1.000
    C231     C        0.11660    0.92819    0.03471    1.000
    H245     H        0.11850    0.95300    0.01940    1.000
    H246     H        0.10480    0.93460    0.06070    1.000
    N17      N        0.15728    0.91146    0.04076    1.000
    H247     H        0.16750    0.90860    0.01910    1.000
    C232     C        0.18610    0.93495    0.06506    1.000
    C233     C        0.19768    0.97508    0.04628    1.000
    H248     H        0.22350    0.97300    0.03280    1.000
    H249     H        0.17760    0.98340    0.02670    1.000
    C234     C        0.19990    0.00460    0.07980    1.000
    H250     H        0.19600    0.03200    0.07030    1.000
    H251     H        0.22540    0.00280    0.09400    1.000
    C235     C        0.16460    0.99060    0.10660    1.000
    H252     H        0.16680    0.00170    0.13350    1.000
    H253     H        0.13900    0.99860    0.09510    1.000
    C236     C        0.16893    0.94571    0.10703    1.000
    H254     H        0.14300    0.93280    0.11120    1.000
    H255     H        0.18720    0.93730    0.12820    1.000
    C237     C        0.22193    0.90760    0.07233    1.000
    O50      O        0.21442    0.87002    0.07344    1.000
    O51      O        0.25497    0.92260    0.07794    1.000
    C238     C        0.19390    0.98220    0.11970    1.000
    Cu18     Cu       0.65852    0.35684    0.56370    1.000
    O52      O        0.60049    0.35236    0.56434    1.000
    C239     C        0.58232    0.36182    0.52989    1.000
    C240     C        0.55689    0.33514    0.51104    1.000
    H256     H        0.55190    0.31010    0.52250    1.000
    C241     C        0.53911    0.34547    0.47565    1.000
    H257     H        0.52190    0.32740    0.46290    1.000
    C242     C        0.54638    0.38236    0.45866    1.000
    H258     H        0.53410    0.38940    0.43440    1.000
    C243     C        0.57180    0.40892    0.47751    1.000
    H259     H        0.57670    0.43390    0.46590    1.000
    C244     C        0.59001    0.39926    0.51300    1.000
    C245     C        0.61660    0.42819    0.53471    1.000
    H260     H        0.61850    0.45300    0.51940    1.000
    H261     H        0.60480    0.43460    0.56070    1.000
    N18      N        0.65728    0.41146    0.54076    1.000
    H262     H        0.66750    0.40860    0.51910    1.000
    C246     C        0.68610    0.43495    0.56506    1.000
    C247     C        0.69768    0.47508    0.54628    1.000
    H263     H        0.72350    0.47300    0.53280    1.000
    H264     H        0.67760    0.48340    0.52670    1.000
    C248     C        0.69990    0.50460    0.57980    1.000
    H265     H        0.69600    0.53200    0.57030    1.000
    H266     H        0.72540    0.50280    0.59400    1.000
    C249     C        0.66460    0.49060    0.60660    1.000
    H267     H        0.66680    0.50170    0.63350    1.000
    H268     H        0.63900    0.49860    0.59510    1.000
    C250     C        0.66893    0.44571    0.60703    1.000
    H269     H        0.64300    0.43280    0.61120    1.000
    H270     H        0.68720    0.43730    0.62820    1.000
    C251     C        0.72193    0.40760    0.57233    1.000
    O53      O        0.71442    0.37002    0.57344    1.000
    O54      O        0.75497    0.42260    0.57794    1.000
    C252     C        0.69390    0.48220    0.61970    1.000
    Cu19     Cu       0.84148    0.35684    0.43630    1.000
    O55      O        0.89951    0.35236    0.43566    1.000
    C253     C        0.91768    0.36182    0.47011    1.000
    C254     C        0.94311    0.33514    0.48896    1.000
    H271     H        0.94810    0.31010    0.47750    1.000
    C255     C        0.96089    0.34547    0.52435    1.000
    H272     H        0.97810    0.32740    0.53710    1.000
    C256     C        0.95362    0.38236    0.54134    1.000
    H273     H        0.96590    0.38940    0.56560    1.000
    C257     C        0.92820    0.40892    0.52249    1.000
    H274     H        0.92330    0.43390    0.53410    1.000
    C258     C        0.90999    0.39926    0.48700    1.000
    C259     C        0.88340    0.42819    0.46529    1.000
    H275     H        0.88150    0.45300    0.48060    1.000
    H276     H        0.89520    0.43460    0.43930    1.000
    N19      N        0.84272    0.41146    0.45924    1.000
    H277     H        0.83250    0.40860    0.48090    1.000
    C260     C        0.81390    0.43495    0.43494    1.000
    C261     C        0.80232    0.47508    0.45372    1.000
    H278     H        0.77650    0.47300    0.46720    1.000
    H279     H        0.82240    0.48340    0.47330    1.000
    C262     C        0.80010    0.50460    0.42020    1.000
    H280     H        0.80400    0.53200    0.42970    1.000
    H281     H        0.77460    0.50280    0.40600    1.000
    C263     C        0.83540    0.49060    0.39340    1.000
    H282     H        0.83320    0.50170    0.36650    1.000
    H283     H        0.86100    0.49860    0.40490    1.000
    C264     C        0.83107    0.44571    0.39297    1.000
    H284     H        0.85700    0.43280    0.38880    1.000
    H285     H        0.81280    0.43730    0.37180    1.000
    C265     C        0.77807    0.40760    0.42767    1.000
    O56      O        0.78558    0.37002    0.42656    1.000
    O57      O        0.74503    0.42260    0.42206    1.000
    C266     C        0.80610    0.48220    0.38030    1.000
    Cu20     Cu       0.34148    0.85684    0.93630    1.000
    O58      O        0.39951    0.85236    0.93566    1.000
    C267     C        0.41768    0.86182    0.97011    1.000
    C268     C        0.44311    0.83514    0.98896    1.000
    H286     H        0.44810    0.81010    0.97750    1.000
    C269     C        0.46089    0.84547    0.02435    1.000
    H287     H        0.47810    0.82740    0.03710    1.000
    C270     C        0.45362    0.88236    0.04134    1.000
    H288     H        0.46590    0.88940    0.06560    1.000
    C271     C        0.42820    0.90892    0.02249    1.000
    H289     H        0.42330    0.93390    0.03410    1.000
    C272     C        0.40999    0.89926    0.98700    1.000
    C273     C        0.38340    0.92819    0.96529    1.000
    H290     H        0.38150    0.95300    0.98060    1.000
    H291     H        0.39520    0.93460    0.93930    1.000
    N20      N        0.34272    0.91146    0.95924    1.000
    H292     H        0.33250    0.90860    0.98090    1.000
    C274     C        0.31390    0.93495    0.93494    1.000
    C275     C        0.30232    0.97508    0.95372    1.000
    H293     H        0.27650    0.97300    0.96720    1.000
    H294     H        0.32240    0.98340    0.97330    1.000
    C276     C        0.30010    0.00460    0.92020    1.000
    H295     H        0.30400    0.03200    0.92970    1.000
    H296     H        0.27460    0.00280    0.90600    1.000
    C277     C        0.33540    0.99060    0.89340    1.000
    H297     H        0.33320    0.00170    0.86650    1.000
    H298     H        0.36100    0.99860    0.90490    1.000
    C278     C        0.33107    0.94571    0.89297    1.000
    H299     H        0.35700    0.93280    0.88880    1.000
    H300     H        0.31280    0.93730    0.87180    1.000
    C279     C        0.27807    0.90760    0.92767    1.000
    O59      O        0.28558    0.87002    0.92656    1.000
    O60      O        0.24503    0.92260    0.92206    1.000
    C280     C        0.30610    0.98220    0.88030    1.000
    Cu21     Cu       0.65852    0.64316    0.93630    1.000
    O61      O        0.60049    0.64764    0.93566    1.000
    C281     C        0.58232    0.63818    0.97011    1.000
    C282     C        0.55689    0.66486    0.98896    1.000
    H301     H        0.55190    0.68990    0.97750    1.000
    C283     C        0.53911    0.65453    0.02435    1.000
    H302     H        0.52190    0.67260    0.03710    1.000
    C284     C        0.54638    0.61764    0.04134    1.000
    H303     H        0.53410    0.61060    0.06560    1.000
    C285     C        0.57180    0.59108    0.02249    1.000
    H304     H        0.57670    0.56610    0.03410    1.000
    C286     C        0.59001    0.60074    0.98700    1.000
    C287     C        0.61660    0.57181    0.96529    1.000
    H305     H        0.61850    0.54700    0.98060    1.000
    H306     H        0.60480    0.56540    0.93930    1.000
    N21      N        0.65728    0.58854    0.95924    1.000
    H307     H        0.66750    0.59140    0.98090    1.000
    C288     C        0.68610    0.56505    0.93494    1.000
    C289     C        0.69768    0.52492    0.95372    1.000
    H308     H        0.72350    0.52700    0.96720    1.000
    H309     H        0.67760    0.51660    0.97330    1.000
    C290     C        0.69990    0.49540    0.92020    1.000
    H310     H        0.69600    0.46800    0.92970    1.000
    H311     H        0.72540    0.49720    0.90600    1.000
    C291     C        0.66460    0.50940    0.89340    1.000
    H312     H        0.66680    0.49830    0.86650    1.000
    H313     H        0.63900    0.50140    0.90490    1.000
    C292     C        0.66893    0.55429    0.89297    1.000
    H314     H        0.64300    0.56720    0.88880    1.000
    H315     H        0.68720    0.56270    0.87180    1.000
    C293     C        0.72193    0.59240    0.92767    1.000
    O62      O        0.71442    0.62998    0.92656    1.000
    O63      O        0.75497    0.57740    0.92206    1.000
    C294     C        0.69390    0.51780    0.88030    1.000
    Cu22     Cu       0.15852    0.14316    0.43630    1.000
    O64      O        0.10049    0.14764    0.43566    1.000
    C295     C        0.08232    0.13818    0.47011    1.000
    C296     C        0.05689    0.16486    0.48896    1.000
    H316     H        0.05190    0.18990    0.47750    1.000
    C297     C        0.03911    0.15453    0.52435    1.000
    H317     H        0.02190    0.17260    0.53710    1.000
    C298     C        0.04638    0.11764    0.54134    1.000
    H318     H        0.03410    0.11060    0.56560    1.000
    C299     C        0.07180    0.09108    0.52249    1.000
    H319     H        0.07670    0.06610    0.53410    1.000
    C300     C        0.09001    0.10074    0.48700    1.000
    C301     C        0.11660    0.07181    0.46529    1.000
    H320     H        0.11850    0.04700    0.48060    1.000
    H321     H        0.10480    0.06540    0.43930    1.000
    N22      N        0.15728    0.08854    0.45924    1.000
    H322     H        0.16750    0.09140    0.48090    1.000
    C302     C        0.18610    0.06505    0.43494    1.000
    C303     C        0.19768    0.02492    0.45372    1.000
    H323     H        0.22350    0.02700    0.46720    1.000
    H324     H        0.17760    0.01660    0.47330    1.000
    C304     C        0.19990    0.99540    0.42020    1.000
    H325     H        0.19600    0.96800    0.42970    1.000
    H326     H        0.22540    0.99720    0.40600    1.000
    C305     C        0.16460    0.00940    0.39340    1.000
    H327     H        0.16680    0.99830    0.36650    1.000
    H328     H        0.13900    0.00140    0.40490    1.000
    C306     C        0.16893    0.05429    0.39297    1.000
    H329     H        0.14300    0.06720    0.38880    1.000
    H330     H        0.18720    0.06270    0.37180    1.000
    C307     C        0.22193    0.09240    0.42767    1.000
    O65      O        0.21442    0.12998    0.42656    1.000
    O66      O        0.25497    0.07740    0.42206    1.000
    C308     C        0.19390    0.01780    0.38030    1.000
    Cu23     Cu       0.34148    0.14316    0.56370    1.000
    O67      O        0.39951    0.14764    0.56434    1.000
    C309     C        0.41768    0.13818    0.52989    1.000
    C310     C        0.44311    0.16486    0.51104    1.000
    H331     H        0.44810    0.18990    0.52250    1.000
    C311     C        0.46089    0.15453    0.47565    1.000
    H332     H        0.47810    0.17260    0.46290    1.000
    C312     C        0.45362    0.11764    0.45866    1.000
    H333     H        0.46590    0.11060    0.43440    1.000
    C313     C        0.42820    0.09108    0.47751    1.000
    H334     H        0.42330    0.06610    0.46590    1.000
    C314     C        0.40999    0.10074    0.51300    1.000
    C315     C        0.38340    0.07181    0.53471    1.000
    H335     H        0.38150    0.04700    0.51940    1.000
    H336     H        0.39520    0.06540    0.56070    1.000
    N23      N        0.34272    0.08854    0.54076    1.000
    H337     H        0.33250    0.09140    0.51910    1.000
    C316     C        0.31390    0.06505    0.56506    1.000
    C317     C        0.30232    0.02492    0.54628    1.000
    H338     H        0.27650    0.02700    0.53280    1.000
    H339     H        0.32240    0.01660    0.52670    1.000
    C318     C        0.30010    0.99540    0.57980    1.000
    H340     H        0.30400    0.96800    0.57030    1.000
    H341     H        0.27460    0.99720    0.59400    1.000
    C319     C        0.33540    0.00940    0.60660    1.000
    H342     H        0.33320    0.99830    0.63350    1.000
    H343     H        0.36100    0.00140    0.59510    1.000
    C320     C        0.33107    0.05429    0.60703    1.000
    H344     H        0.35700    0.06720    0.61120    1.000
    H345     H        0.31280    0.06270    0.62820    1.000
    C321     C        0.27807    0.09240    0.57233    1.000
    O68      O        0.28558    0.12998    0.57344    1.000
    O69      O        0.24503    0.07740    0.57794    1.000
    C322     C        0.30610    0.01780    0.61970    1.000
    Cu24     Cu       0.84148    0.64316    0.06370    1.000
    O70      O        0.89951    0.64764    0.06434    1.000
    C323     C        0.91768    0.63818    0.02989    1.000
    C324     C        0.94311    0.66486    0.01104    1.000
    H346     H        0.94810    0.68990    0.02250    1.000
    C325     C        0.96089    0.65453    0.97565    1.000
    H347     H        0.97810    0.67260    0.96290    1.000
    C326     C        0.95362    0.61764    0.95866    1.000
    H348     H        0.96590    0.61060    0.93440    1.000
    C327     C        0.92820    0.59108    0.97751    1.000
    H349     H        0.92330    0.56610    0.96590    1.000
    C328     C        0.90999    0.60074    0.01300    1.000
    C329     C        0.88340    0.57181    0.03471    1.000
    H350     H        0.88150    0.54700    0.01940    1.000
    H351     H        0.89520    0.56540    0.06070    1.000
    N24      N        0.84272    0.58854    0.04076    1.000
    H352     H        0.83250    0.59140    0.01910    1.000
    C330     C        0.81390    0.56505    0.06506    1.000
    C331     C        0.80232    0.52492    0.04628    1.000
    H353     H        0.77650    0.52700    0.03280    1.000
    H354     H        0.82240    0.51660    0.02670    1.000
    C332     C        0.80010    0.49540    0.07980    1.000
    H355     H        0.80400    0.46800    0.07030    1.000
    H356     H        0.77460    0.49720    0.09400    1.000
    C333     C        0.83540    0.50940    0.10660    1.000
    H357     H        0.83320    0.49830    0.13350    1.000
    H358     H        0.86100    0.50140    0.09510    1.000
    C334     C        0.83107    0.55429    0.10703    1.000
    H359     H        0.85700    0.56720    0.11120    1.000
    H360     H        0.81280    0.56270    0.12820    1.000
    C335     C        0.77807    0.59240    0.07233    1.000
    O71      O        0.78558    0.62998    0.07344    1.000
    O72      O        0.74503    0.57740    0.07794    1.000
    C336     C        0.80610    0.51780    0.11970    1.000
    Cu25     Cu       0.90852    0.31370    0.39316    1.000
    O73      O        0.85049    0.31434    0.39764    1.000
    C337     C        0.83232    0.27989    0.38818    1.000
    C338     C        0.80689    0.26104    0.41486    1.000
    H361     H        0.80190    0.27250    0.43990    1.000
    C339     C        0.78911    0.22565    0.40453    1.000
    H362     H        0.77190    0.21290    0.42260    1.000
    C340     C        0.79638    0.20866    0.36764    1.000
    H363     H        0.78410    0.18440    0.36060    1.000
    C341     C        0.82180    0.22751    0.34108    1.000
    H364     H        0.82670    0.21590    0.31610    1.000
    C342     C        0.84001    0.26300    0.35074    1.000
    C343     C        0.86660    0.28471    0.32181    1.000
    H365     H        0.86850    0.26940    0.29700    1.000
    H366     H        0.85480    0.31070    0.31540    1.000
    N25      N        0.90728    0.29076    0.33854    1.000
    H367     H        0.91750    0.26910    0.34140    1.000
    C344     C        0.93610    0.31506    0.31505    1.000
    C345     C        0.94768    0.29628    0.27492    1.000
    H368     H        0.97350    0.28280    0.27700    1.000
    H369     H        0.92760    0.27670    0.26660    1.000
    C346     C        0.94990    0.32980    0.24540    1.000
    H370     H        0.94600    0.32030    0.21800    1.000
    H371     H        0.97540    0.34400    0.24720    1.000
    C347     C        0.91460    0.35660    0.25940    1.000
    H372     H        0.91680    0.38350    0.24830    1.000
    H373     H        0.88900    0.34510    0.25140    1.000
    C348     C        0.91893    0.35703    0.30429    1.000
    H374     H        0.89300    0.36120    0.31720    1.000
    H375     H        0.93720    0.37820    0.31270    1.000
    C349     C        0.97193    0.32233    0.34240    1.000
    O74      O        0.96442    0.32344    0.37998    1.000
    O75      O        0.00497    0.32794    0.32740    1.000
    C350     C        0.94390    0.36970    0.26780    1.000
    Cu26     Cu       0.40852    0.81370    0.89316    1.000
    O76      O        0.35049    0.81434    0.89764    1.000
    C351     C        0.33232    0.77989    0.88818    1.000
    C352     C        0.30689    0.76104    0.91486    1.000
    H376     H        0.30190    0.77250    0.93990    1.000
    C353     C        0.28911    0.72565    0.90453    1.000
    H377     H        0.27190    0.71290    0.92260    1.000
    C354     C        0.29638    0.70866    0.86764    1.000
    H378     H        0.28410    0.68440    0.86060    1.000
    C355     C        0.32180    0.72751    0.84108    1.000
    H379     H        0.32670    0.71590    0.81610    1.000
    C356     C        0.34001    0.76300    0.85074    1.000
    C357     C        0.36660    0.78471    0.82181    1.000
    H380     H        0.36850    0.76940    0.79700    1.000
    H381     H        0.35480    0.81070    0.81540    1.000
    N26      N        0.40728    0.79076    0.83854    1.000
    H382     H        0.41750    0.76910    0.84140    1.000
    C358     C        0.43610    0.81506    0.81505    1.000
    C359     C        0.44768    0.79628    0.77492    1.000
    H383     H        0.47350    0.78280    0.77700    1.000
    H384     H        0.42760    0.77670    0.76660    1.000
    C360     C        0.44990    0.82980    0.74540    1.000
    H385     H        0.44600    0.82030    0.71800    1.000
    H386     H        0.47540    0.84400    0.74720    1.000
    C361     C        0.41460    0.85660    0.75940    1.000
    H387     H        0.41680    0.88350    0.74830    1.000
    H388     H        0.38900    0.84510    0.75140    1.000
    C362     C        0.41893    0.85703    0.80429    1.000
    H389     H        0.39300    0.86120    0.81720    1.000
    H390     H        0.43720    0.87820    0.81270    1.000
    C363     C        0.47193    0.82233    0.84240    1.000
    O77      O        0.46442    0.82344    0.87998    1.000
    O78      O        0.50497    0.82794    0.82740    1.000
    C364     C        0.44390    0.86970    0.76780    1.000
    Cu27     Cu       0.59148    0.68630    0.89316    1.000
    O79      O        0.64951    0.68566    0.89764    1.000
    C365     C        0.66768    0.72011    0.88818    1.000
    C366     C        0.69311    0.73896    0.91486    1.000
    H391     H        0.69810    0.72750    0.93990    1.000
    C367     C        0.71089    0.77435    0.90453    1.000
    H392     H        0.72810    0.78710    0.92260    1.000
    C368     C        0.70362    0.79134    0.86764    1.000
    H393     H        0.71590    0.81560    0.86060    1.000
    C369     C        0.67820    0.77249    0.84108    1.000
    H394     H        0.67330    0.78410    0.81610    1.000
    C370     C        0.65999    0.73700    0.85074    1.000
    C371     C        0.63340    0.71529    0.82181    1.000
    H395     H        0.63150    0.73060    0.79700    1.000
    H396     H        0.64520    0.68930    0.81540    1.000
    N27      N        0.59272    0.70924    0.83854    1.000
    H397     H        0.58250    0.73090    0.84140    1.000
    C372     C        0.56390    0.68494    0.81505    1.000
    C373     C        0.55232    0.70372    0.77492    1.000
    H398     H        0.52650    0.71720    0.77700    1.000
    H399     H        0.57240    0.72330    0.76660    1.000
    C374     C        0.55010    0.67020    0.74540    1.000
    H400     H        0.55400    0.67970    0.71800    1.000
    H401     H        0.52460    0.65600    0.74720    1.000
    C375     C        0.58540    0.64340    0.75940    1.000
    H402     H        0.58320    0.61650    0.74830    1.000
    H403     H        0.61100    0.65490    0.75140    1.000
    C376     C        0.58107    0.64297    0.80429    1.000
    H404     H        0.60700    0.63880    0.81720    1.000
    H405     H        0.56280    0.62180    0.81270    1.000
    C377     C        0.52807    0.67767    0.84240    1.000
    O80      O        0.53558    0.67656    0.87998    1.000
    O81      O        0.49503    0.67206    0.82740    1.000
    C378     C        0.55610    0.63030    0.76780    1.000
    Cu28     Cu       0.09148    0.18630    0.39316    1.000
    O82      O        0.14951    0.18566    0.39764    1.000
    C379     C        0.16768    0.22011    0.38818    1.000
    C380     C        0.19311    0.23896    0.41486    1.000
    H406     H        0.19810    0.22750    0.43990    1.000
    C381     C        0.21089    0.27435    0.40453    1.000
    H407     H        0.22810    0.28710    0.42260    1.000
    C382     C        0.20362    0.29134    0.36764    1.000
    H408     H        0.21590    0.31560    0.36060    1.000
    C383     C        0.17820    0.27249    0.34108    1.000
    H409     H        0.17330    0.28410    0.31610    1.000
    C384     C        0.15999    0.23700    0.35074    1.000
    C385     C        0.13340    0.21529    0.32181    1.000
    H410     H        0.13150    0.23060    0.29700    1.000
    H411     H        0.14520    0.18930    0.31540    1.000
    N28      N        0.09272    0.20924    0.33854    1.000
    H412     H        0.08250    0.23090    0.34140    1.000
    C386     C        0.06390    0.18494    0.31505    1.000
    C387     C        0.05232    0.20372    0.27492    1.000
    H413     H        0.02650    0.21720    0.27700    1.000
    H414     H        0.07240    0.22330    0.26660    1.000
    C388     C        0.05010    0.17020    0.24540    1.000
    H415     H        0.05400    0.17970    0.21800    1.000
    H416     H        0.02460    0.15600    0.24720    1.000
    C389     C        0.08540    0.14340    0.25940    1.000
    H417     H        0.08320    0.11650    0.24830    1.000
    H418     H        0.11100    0.15490    0.25140    1.000
    C390     C        0.08107    0.14297    0.30429    1.000
    H419     H        0.10700    0.13880    0.31720    1.000
    H420     H        0.06280    0.12180    0.31270    1.000
    C391     C        0.02807    0.17767    0.34240    1.000
    O83      O        0.03558    0.17656    0.37998    1.000
    O84      O        0.99503    0.17206    0.32740    1.000
    C392     C        0.05610    0.13030    0.26780    1.000
    Cu29     Cu       0.40852    0.18630    0.60684    1.000
    O85      O        0.35049    0.18566    0.60236    1.000
    C393     C        0.33232    0.22011    0.61182    1.000
    C394     C        0.30689    0.23896    0.58514    1.000
    H421     H        0.30190    0.22750    0.56010    1.000
    C395     C        0.28911    0.27435    0.59547    1.000
    H422     H        0.27190    0.28710    0.57740    1.000
    C396     C        0.29638    0.29134    0.63236    1.000
    H423     H        0.28410    0.31560    0.63940    1.000
    C397     C        0.32180    0.27249    0.65892    1.000
    H424     H        0.32670    0.28410    0.68390    1.000
    C398     C        0.34001    0.23700    0.64926    1.000
    C399     C        0.36660    0.21529    0.67819    1.000
    H425     H        0.36850    0.23060    0.70300    1.000
    H426     H        0.35480    0.18930    0.68460    1.000
    N29      N        0.40728    0.20924    0.66146    1.000
    H427     H        0.41750    0.23090    0.65860    1.000
    C400     C        0.43610    0.18494    0.68495    1.000
    C401     C        0.44768    0.20372    0.72508    1.000
    H428     H        0.47350    0.21720    0.72300    1.000
    H429     H        0.42760    0.22330    0.73340    1.000
    C402     C        0.44990    0.17020    0.75460    1.000
    H430     H        0.44600    0.17970    0.78200    1.000
    H431     H        0.47540    0.15600    0.75280    1.000
    C403     C        0.41460    0.14340    0.74060    1.000
    H432     H        0.41680    0.11650    0.75170    1.000
    H433     H        0.38900    0.15490    0.74860    1.000
    C404     C        0.41893    0.14297    0.69571    1.000
    H434     H        0.39300    0.13880    0.68280    1.000
    H435     H        0.43720    0.12180    0.68730    1.000
    C405     C        0.47193    0.17767    0.65760    1.000
    O86      O        0.46442    0.17656    0.62002    1.000
    O87      O        0.50497    0.17206    0.67260    1.000
    C406     C        0.44390    0.13030    0.73220    1.000
    Cu30     Cu       0.90852    0.68630    0.10684    1.000
    O88      O        0.85049    0.68566    0.10236    1.000
    C407     C        0.83232    0.72011    0.11182    1.000
    C408     C        0.80689    0.73896    0.08514    1.000
    H436     H        0.80190    0.72750    0.06010    1.000
    C409     C        0.78911    0.77435    0.09547    1.000
    H437     H        0.77190    0.78710    0.07740    1.000
    C410     C        0.79638    0.79134    0.13236    1.000
    H438     H        0.78410    0.81560    0.13940    1.000
    C411     C        0.82180    0.77249    0.15892    1.000
    H439     H        0.82670    0.78410    0.18390    1.000
    C412     C        0.84001    0.73700    0.14926    1.000
    C413     C        0.86660    0.71529    0.17819    1.000
    H440     H        0.86850    0.73060    0.20300    1.000
    H441     H        0.85480    0.68930    0.18460    1.000
    N30      N        0.90728    0.70924    0.16146    1.000
    H442     H        0.91750    0.73090    0.15860    1.000
    C414     C        0.93610    0.68494    0.18495    1.000
    C415     C        0.94768    0.70372    0.22508    1.000
    H443     H        0.97350    0.71720    0.22300    1.000
    H444     H        0.92760    0.72330    0.23340    1.000
    C416     C        0.94990    0.67020    0.25460    1.000
    H445     H        0.94600    0.67970    0.28200    1.000
    H446     H        0.97540    0.65600    0.25280    1.000
    C417     C        0.91460    0.64340    0.24060    1.000
    H447     H        0.91680    0.61650    0.25170    1.000
    H448     H        0.88900    0.65490    0.24860    1.000
    C418     C        0.91893    0.64297    0.19571    1.000
    H449     H        0.89300    0.63880    0.18280    1.000
    H450     H        0.93720    0.62180    0.18730    1.000
    C419     C        0.97193    0.67767    0.15760    1.000
    O89      O        0.96442    0.67656    0.12002    1.000
    O90      O        0.00497    0.67206    0.17260    1.000
    C420     C        0.94390    0.63030    0.23220    1.000
    Cu31     Cu       0.09148    0.81370    0.10684    1.000
    O91      O        0.14951    0.81434    0.10236    1.000
    C421     C        0.16768    0.77989    0.11182    1.000
    C422     C        0.19311    0.76104    0.08514    1.000
    H451     H        0.19810    0.77250    0.06010    1.000
    C423     C        0.21089    0.72565    0.09547    1.000
    H452     H        0.22810    0.71290    0.07740    1.000
    C424     C        0.20362    0.70866    0.13236    1.000
    H453     H        0.21590    0.68440    0.13940    1.000
    C425     C        0.17820    0.72751    0.15892    1.000
    H454     H        0.17330    0.71590    0.18390    1.000
    C426     C        0.15999    0.76300    0.14926    1.000
    C427     C        0.13340    0.78471    0.17819    1.000
    H455     H        0.13150    0.76940    0.20300    1.000
    H456     H        0.14520    0.81070    0.18460    1.000
    N31      N        0.09272    0.79076    0.16146    1.000
    H457     H        0.08250    0.76910    0.15860    1.000
    C428     C        0.06390    0.81506    0.18495    1.000
    C429     C        0.05232    0.79628    0.22508    1.000
    H458     H        0.02650    0.78280    0.22300    1.000
    H459     H        0.07240    0.77670    0.23340    1.000
    C430     C        0.05010    0.82980    0.25460    1.000
    H460     H        0.05400    0.82030    0.28200    1.000
    H461     H        0.02460    0.84400    0.25280    1.000
    C431     C        0.08540    0.85660    0.24060    1.000
    H462     H        0.08320    0.88350    0.25170    1.000
    H463     H        0.11100    0.84510    0.24860    1.000
    C432     C        0.08107    0.85703    0.19571    1.000
    H464     H        0.10700    0.86120    0.18280    1.000
    H465     H        0.06280    0.87820    0.18730    1.000
    C433     C        0.02807    0.82233    0.15760    1.000
    O92      O        0.03558    0.82344    0.12002    1.000
    O93      O        0.99503    0.82794    0.17260    1.000
    C434     C        0.05610    0.86970    0.23220    1.000
    Cu32     Cu       0.59148    0.31370    0.60684    1.000
    O94      O        0.64951    0.31434    0.60236    1.000
    C435     C        0.66768    0.27989    0.61182    1.000
    C436     C        0.69311    0.26104    0.58514    1.000
    H466     H        0.69810    0.27250    0.56010    1.000
    C437     C        0.71089    0.22565    0.59547    1.000
    H467     H        0.72810    0.21290    0.57740    1.000
    C438     C        0.70362    0.20866    0.63236    1.000
    H468     H        0.71590    0.18440    0.63940    1.000
    C439     C        0.67820    0.22751    0.65892    1.000
    H469     H        0.67330    0.21590    0.68390    1.000
    C440     C        0.65999    0.26300    0.64926    1.000
    C441     C        0.63340    0.28471    0.67819    1.000
    H470     H        0.63150    0.26940    0.70300    1.000
    H471     H        0.64520    0.31070    0.68460    1.000
    N32      N        0.59272    0.29076    0.66146    1.000
    H472     H        0.58250    0.26910    0.65860    1.000
    C442     C        0.56390    0.31506    0.68495    1.000
    C443     C        0.55232    0.29628    0.72508    1.000
    H473     H        0.52650    0.28280    0.72300    1.000
    H474     H        0.57240    0.27670    0.73340    1.000
    C444     C        0.55010    0.32980    0.75460    1.000
    H475     H        0.55400    0.32030    0.78200    1.000
    H476     H        0.52460    0.34400    0.75280    1.000
    C445     C        0.58540    0.35660    0.74060    1.000
    H477     H        0.58320    0.38350    0.75170    1.000
    H478     H        0.61100    0.34510    0.74860    1.000
    C446     C        0.58107    0.35703    0.69571    1.000
    H479     H        0.60700    0.36120    0.68280    1.000
    H480     H        0.56280    0.37820    0.68730    1.000
    C447     C        0.52807    0.32233    0.65760    1.000
    O95      O        0.53558    0.32344    0.62002    1.000
    O96      O        0.49503    0.32794    0.67260    1.000
    C448     C        0.55610    0.36970    0.73220    1.000
    Cu33     Cu       0.81370    0.10684    0.09148    1.000
    O97      O        0.81434    0.10236    0.14951    1.000
    C449     C        0.77989    0.11182    0.16768    1.000
    C450     C        0.76104    0.08514    0.19311    1.000
    H481     H        0.77250    0.06010    0.19810    1.000
    C451     C        0.72565    0.09547    0.21089    1.000
    H482     H        0.71290    0.07740    0.22810    1.000
    C452     C        0.70866    0.13236    0.20362    1.000
    H483     H        0.68440    0.13940    0.21590    1.000
    C453     C        0.72751    0.15892    0.17820    1.000
    H484     H        0.71590    0.18390    0.17330    1.000
    C454     C        0.76300    0.14926    0.15999    1.000
    C455     C        0.78471    0.17819    0.13340    1.000
    H485     H        0.76940    0.20300    0.13150    1.000
    H486     H        0.81070    0.18460    0.14520    1.000
    N33      N        0.79076    0.16146    0.09272    1.000
    H487     H        0.76910    0.15860    0.08250    1.000
    C456     C        0.81506    0.18495    0.06390    1.000
    C457     C        0.79628    0.22508    0.05232    1.000
    H488     H        0.78280    0.22300    0.02650    1.000
    H489     H        0.77670    0.23340    0.07240    1.000
    C458     C        0.82980    0.25460    0.05010    1.000
    H490     H        0.82030    0.28200    0.05400    1.000
    H491     H        0.84400    0.25280    0.02460    1.000
    C459     C        0.85660    0.24060    0.08540    1.000
    H492     H        0.88350    0.25170    0.08320    1.000
    H493     H        0.84510    0.24860    0.11100    1.000
    C460     C        0.85703    0.19571    0.08107    1.000
    H494     H        0.86120    0.18280    0.10700    1.000
    H495     H        0.87820    0.18730    0.06280    1.000
    C461     C        0.82233    0.15760    0.02807    1.000
    O98      O        0.82344    0.12002    0.03558    1.000
    O99      O        0.82794    0.17260    0.99503    1.000
    C462     C        0.86970    0.23220    0.05610    1.000
    Cu34     Cu       0.31370    0.60684    0.59148    1.000
    O100     O        0.31434    0.60236    0.64951    1.000
    C463     C        0.27989    0.61182    0.66768    1.000
    C464     C        0.26104    0.58514    0.69311    1.000
    H496     H        0.27250    0.56010    0.69810    1.000
    C465     C        0.22565    0.59547    0.71089    1.000
    H497     H        0.21290    0.57740    0.72810    1.000
    C466     C        0.20866    0.63236    0.70362    1.000
    H498     H        0.18440    0.63940    0.71590    1.000
    C467     C        0.22751    0.65892    0.67820    1.000
    H499     H        0.21590    0.68390    0.67330    1.000
    C468     C        0.26300    0.64926    0.65999    1.000
    C469     C        0.28471    0.67819    0.63340    1.000
    H500     H        0.26940    0.70300    0.63150    1.000
    H501     H        0.31070    0.68460    0.64520    1.000
    N34      N        0.29076    0.66146    0.59272    1.000
    H502     H        0.26910    0.65860    0.58250    1.000
    C470     C        0.31506    0.68495    0.56390    1.000
    C471     C        0.29628    0.72508    0.55232    1.000
    H503     H        0.28280    0.72300    0.52650    1.000
    H504     H        0.27670    0.73340    0.57240    1.000
    C472     C        0.32980    0.75460    0.55010    1.000
    H505     H        0.32030    0.78200    0.55400    1.000
    H506     H        0.34400    0.75280    0.52460    1.000
    C473     C        0.35660    0.74060    0.58540    1.000
    H507     H        0.38350    0.75170    0.58320    1.000
    H508     H        0.34510    0.74860    0.61100    1.000
    C474     C        0.35703    0.69571    0.58107    1.000
    H509     H        0.36120    0.68280    0.60700    1.000
    H510     H        0.37820    0.68730    0.56280    1.000
    C475     C        0.32233    0.65760    0.52807    1.000
    O101     O        0.32344    0.62002    0.53558    1.000
    O102     O        0.32794    0.67260    0.49503    1.000
    C476     C        0.36970    0.73220    0.55610    1.000
    Cu35     Cu       0.18630    0.60684    0.40852    1.000
    O103     O        0.18566    0.60236    0.35049    1.000
    C477     C        0.22011    0.61182    0.33232    1.000
    C478     C        0.23896    0.58514    0.30689    1.000
    H511     H        0.22750    0.56010    0.30190    1.000
    C479     C        0.27435    0.59547    0.28911    1.000
    H512     H        0.28710    0.57740    0.27190    1.000
    C480     C        0.29134    0.63236    0.29638    1.000
    H513     H        0.31560    0.63940    0.28410    1.000
    C481     C        0.27249    0.65892    0.32180    1.000
    H514     H        0.28410    0.68390    0.32670    1.000
    C482     C        0.23700    0.64926    0.34001    1.000
    C483     C        0.21529    0.67819    0.36660    1.000
    H515     H        0.23060    0.70300    0.36850    1.000
    H516     H        0.18930    0.68460    0.35480    1.000
    N35      N        0.20924    0.66146    0.40728    1.000
    H517     H        0.23090    0.65860    0.41750    1.000
    C484     C        0.18494    0.68495    0.43610    1.000
    C485     C        0.20372    0.72508    0.44768    1.000
    H518     H        0.21720    0.72300    0.47350    1.000
    H519     H        0.22330    0.73340    0.42760    1.000
    C486     C        0.17020    0.75460    0.44990    1.000
    H520     H        0.17970    0.78200    0.44600    1.000
    H521     H        0.15600    0.75280    0.47540    1.000
    C487     C        0.14340    0.74060    0.41460    1.000
    H522     H        0.11650    0.75170    0.41680    1.000
    H523     H        0.15490    0.74860    0.38900    1.000
    C488     C        0.14297    0.69571    0.41893    1.000
    H524     H        0.13880    0.68280    0.39300    1.000
    H525     H        0.12180    0.68730    0.43720    1.000
    C489     C        0.17767    0.65760    0.47193    1.000
    O104     O        0.17656    0.62002    0.46442    1.000
    O105     O        0.17206    0.67260    0.50497    1.000
    C490     C        0.13030    0.73220    0.44390    1.000
    Cu36     Cu       0.68630    0.10684    0.90852    1.000
    O106     O        0.68566    0.10236    0.85049    1.000
    C491     C        0.72011    0.11182    0.83232    1.000
    C492     C        0.73896    0.08514    0.80689    1.000
    H526     H        0.72750    0.06010    0.80190    1.000
    C493     C        0.77435    0.09547    0.78911    1.000
    H527     H        0.78710    0.07740    0.77190    1.000
    C494     C        0.79134    0.13236    0.79638    1.000
    H528     H        0.81560    0.13940    0.78410    1.000
    C495     C        0.77249    0.15892    0.82180    1.000
    H529     H        0.78410    0.18390    0.82670    1.000
    C496     C        0.73700    0.14926    0.84001    1.000
    C497     C        0.71529    0.17819    0.86660    1.000
    H530     H        0.73060    0.20300    0.86850    1.000
    H531     H        0.68930    0.18460    0.85480    1.000
    N36      N        0.70924    0.16146    0.90728    1.000
    H532     H        0.73090    0.15860    0.91750    1.000
    C498     C        0.68494    0.18495    0.93610    1.000
    C499     C        0.70372    0.22508    0.94768    1.000
    H533     H        0.71720    0.22300    0.97350    1.000
    H534     H        0.72330    0.23340    0.92760    1.000
    C500     C        0.67020    0.25460    0.94990    1.000
    H535     H        0.67970    0.28200    0.94600    1.000
    H536     H        0.65600    0.25280    0.97540    1.000
    C501     C        0.64340    0.24060    0.91460    1.000
    H537     H        0.61650    0.25170    0.91680    1.000
    H538     H        0.65490    0.24860    0.88900    1.000
    C502     C        0.64297    0.19571    0.91893    1.000
    H539     H        0.63880    0.18280    0.89300    1.000
    H540     H        0.62180    0.18730    0.93720    1.000
    C503     C        0.67767    0.15760    0.97193    1.000
    O107     O        0.67656    0.12002    0.96442    1.000
    O108     O        0.67206    0.17260    0.00497    1.000
    C504     C        0.63030    0.23220    0.94390    1.000
    Cu37     Cu       0.68630    0.89316    0.59148    1.000
    O109     O        0.68566    0.89764    0.64951    1.000
    C505     C        0.72011    0.88818    0.66768    1.000
    C506     C        0.73896    0.91486    0.69311    1.000
    H541     H        0.72750    0.93990    0.69810    1.000
    C507     C        0.77435    0.90453    0.71089    1.000
    H542     H        0.78710    0.92260    0.72810    1.000
    C508     C        0.79134    0.86764    0.70362    1.000
    H543     H        0.81560    0.86060    0.71590    1.000
    C509     C        0.77249    0.84108    0.67820    1.000
    H544     H        0.78410    0.81610    0.67330    1.000
    C510     C        0.73700    0.85074    0.65999    1.000
    C511     C        0.71529    0.82181    0.63340    1.000
    H545     H        0.73060    0.79700    0.63150    1.000
    H546     H        0.68930    0.81540    0.64520    1.000
    N37      N        0.70924    0.83854    0.59272    1.000
    H547     H        0.73090    0.84140    0.58250    1.000
    C512     C        0.68494    0.81505    0.56390    1.000
    C513     C        0.70372    0.77492    0.55232    1.000
    H548     H        0.71720    0.77700    0.52650    1.000
    H549     H        0.72330    0.76660    0.57240    1.000
    C514     C        0.67020    0.74540    0.55010    1.000
    H550     H        0.67970    0.71800    0.55400    1.000
    H551     H        0.65600    0.74720    0.52460    1.000
    C515     C        0.64340    0.75940    0.58540    1.000
    H552     H        0.61650    0.74830    0.58320    1.000
    H553     H        0.65490    0.75140    0.61100    1.000
    C516     C        0.64297    0.80429    0.58107    1.000
    H554     H        0.63880    0.81720    0.60700    1.000
    H555     H        0.62180    0.81270    0.56280    1.000
    C517     C        0.67767    0.84240    0.52807    1.000
    O110     O        0.67656    0.87998    0.53558    1.000
    O111     O        0.67206    0.82740    0.49503    1.000
    C518     C        0.63030    0.76780    0.55610    1.000
    Cu38     Cu       0.18630    0.39316    0.09148    1.000
    O112     O        0.18566    0.39764    0.14951    1.000
    C519     C        0.22011    0.38818    0.16768    1.000
    C520     C        0.23896    0.41486    0.19311    1.000
    H556     H        0.22750    0.43990    0.19810    1.000
    C521     C        0.27435    0.40453    0.21089    1.000
    H557     H        0.28710    0.42260    0.22810    1.000
    C522     C        0.29134    0.36764    0.20362    1.000
    H558     H        0.31560    0.36060    0.21590    1.000
    C523     C        0.27249    0.34108    0.17820    1.000
    H559     H        0.28410    0.31610    0.17330    1.000
    C524     C        0.23700    0.35074    0.15999    1.000
    C525     C        0.21529    0.32181    0.13340    1.000
    H560     H        0.23060    0.29700    0.13150    1.000
    H561     H        0.18930    0.31540    0.14520    1.000
    N38      N        0.20924    0.33854    0.09272    1.000
    H562     H        0.23090    0.34140    0.08250    1.000
    C526     C        0.18494    0.31505    0.06390    1.000
    C527     C        0.20372    0.27492    0.05232    1.000
    H563     H        0.21720    0.27700    0.02650    1.000
    H564     H        0.22330    0.26660    0.07240    1.000
    C528     C        0.17020    0.24540    0.05010    1.000
    H565     H        0.17970    0.21800    0.05400    1.000
    H566     H        0.15600    0.24720    0.02460    1.000
    C529     C        0.14340    0.25940    0.08540    1.000
    H567     H        0.11650    0.24830    0.08320    1.000
    H568     H        0.15490    0.25140    0.11100    1.000
    C530     C        0.14297    0.30429    0.08107    1.000
    H569     H        0.13880    0.31720    0.10700    1.000
    H570     H        0.12180    0.31270    0.06280    1.000
    C531     C        0.17767    0.34240    0.02807    1.000
    O113     O        0.17656    0.37998    0.03558    1.000
    O114     O        0.17206    0.32740    0.99503    1.000
    C532     C        0.13030    0.26780    0.05610    1.000
    Cu39     Cu       0.31370    0.39316    0.90852    1.000
    O115     O        0.31434    0.39764    0.85049    1.000
    C533     C        0.27989    0.38818    0.83232    1.000
    C534     C        0.26104    0.41486    0.80689    1.000
    H571     H        0.27250    0.43990    0.80190    1.000
    C535     C        0.22565    0.40453    0.78911    1.000
    H572     H        0.21290    0.42260    0.77190    1.000
    C536     C        0.20866    0.36764    0.79638    1.000
    H573     H        0.18440    0.36060    0.78410    1.000
    C537     C        0.22751    0.34108    0.82180    1.000
    H574     H        0.21590    0.31610    0.82670    1.000
    C538     C        0.26300    0.35074    0.84001    1.000
    C539     C        0.28471    0.32181    0.86660    1.000
    H575     H        0.26940    0.29700    0.86850    1.000
    H576     H        0.31070    0.31540    0.85480    1.000
    N39      N        0.29076    0.33854    0.90728    1.000
    H577     H        0.26910    0.34140    0.91750    1.000
    C540     C        0.31506    0.31505    0.93610    1.000
    C541     C        0.29628    0.27492    0.94768    1.000
    H578     H        0.28280    0.27700    0.97350    1.000
    H579     H        0.27670    0.26660    0.92760    1.000
    C542     C        0.32980    0.24540    0.94990    1.000
    H580     H        0.32030    0.21800    0.94600    1.000
    H581     H        0.34400    0.24720    0.97540    1.000
    C543     C        0.35660    0.25940    0.91460    1.000
    H582     H        0.38350    0.24830    0.91680    1.000
    H583     H        0.34510    0.25140    0.88900    1.000
    C544     C        0.35703    0.30429    0.91893    1.000
    H584     H        0.36120    0.31720    0.89300    1.000
    H585     H        0.37820    0.31270    0.93720    1.000
    C545     C        0.32233    0.34240    0.97193    1.000
    O116     O        0.32344    0.37998    0.96442    1.000
    O117     O        0.32794    0.32740    0.00497    1.000
    C546     C        0.36970    0.26780    0.94390    1.000
    Cu40     Cu       0.81370    0.89316    0.40852    1.000
    O118     O        0.81434    0.89764    0.35049    1.000
    C547     C        0.77989    0.88818    0.33232    1.000
    C548     C        0.76104    0.91486    0.30689    1.000
    H586     H        0.77250    0.93990    0.30190    1.000
    C549     C        0.72565    0.90453    0.28911    1.000
    H587     H        0.71290    0.92260    0.27190    1.000
    C550     C        0.70866    0.86764    0.29638    1.000
    H588     H        0.68440    0.86060    0.28410    1.000
    C551     C        0.72751    0.84108    0.32180    1.000
    H589     H        0.71590    0.81610    0.32670    1.000
    C552     C        0.76300    0.85074    0.34001    1.000
    C553     C        0.78471    0.82181    0.36660    1.000
    H590     H        0.76940    0.79700    0.36850    1.000
    H591     H        0.81070    0.81540    0.35480    1.000
    N40      N        0.79076    0.83854    0.40728    1.000
    H592     H        0.76910    0.84140    0.41750    1.000
    C554     C        0.81506    0.81505    0.43610    1.000
    C555     C        0.79628    0.77492    0.44768    1.000
    H593     H        0.78280    0.77700    0.47350    1.000
    H594     H        0.77670    0.76660    0.42760    1.000
    C556     C        0.82980    0.74540    0.44990    1.000
    H595     H        0.82030    0.71800    0.44600    1.000
    H596     H        0.84400    0.74720    0.47540    1.000
    C557     C        0.85660    0.75940    0.41460    1.000
    H597     H        0.88350    0.74830    0.41680    1.000
    H598     H        0.84510    0.75140    0.38900    1.000
    C558     C        0.85703    0.80429    0.41893    1.000
    H599     H        0.86120    0.81720    0.39300    1.000
    H600     H        0.87820    0.81270    0.43720    1.000
    C559     C        0.82233    0.84240    0.47193    1.000
    O119     O        0.82344    0.87998    0.46442    1.000
    O120     O        0.82794    0.82740    0.50497    1.000
    C560     C        0.86970    0.76780    0.44390    1.000
    Cu41     Cu       0.60684    0.40852    0.18630    1.000
    O121     O        0.60236    0.35049    0.18566    1.000
    C561     C        0.61182    0.33232    0.22011    1.000
    C562     C        0.58514    0.30689    0.23896    1.000
    H601     H        0.56010    0.30190    0.22750    1.000
    C563     C        0.59547    0.28911    0.27435    1.000
    H602     H        0.57740    0.27190    0.28710    1.000
    C564     C        0.63236    0.29638    0.29134    1.000
    H603     H        0.63940    0.28410    0.31560    1.000
    C565     C        0.65892    0.32180    0.27249    1.000
    H604     H        0.68390    0.32670    0.28410    1.000
    C566     C        0.64926    0.34001    0.23700    1.000
    C567     C        0.67819    0.36660    0.21529    1.000
    H605     H        0.70300    0.36850    0.23060    1.000
    H606     H        0.68460    0.35480    0.18930    1.000
    N41      N        0.66146    0.40728    0.20924    1.000
    H607     H        0.65860    0.41750    0.23090    1.000
    C568     C        0.68495    0.43610    0.18494    1.000
    C569     C        0.72508    0.44768    0.20372    1.000
    H608     H        0.72300    0.47350    0.21720    1.000
    H609     H        0.73340    0.42760    0.22330    1.000
    C570     C        0.75460    0.44990    0.17020    1.000
    H610     H        0.78200    0.44600    0.17970    1.000
    H611     H        0.75280    0.47540    0.15600    1.000
    C571     C        0.74060    0.41460    0.14340    1.000
    H612     H        0.75170    0.41680    0.11650    1.000
    H613     H        0.74860    0.38900    0.15490    1.000
    C572     C        0.69571    0.41893    0.14297    1.000
    H614     H        0.68280    0.39300    0.13880    1.000
    H615     H        0.68730    0.43720    0.12180    1.000
    C573     C        0.65760    0.47193    0.17767    1.000
    O122     O        0.62002    0.46442    0.17656    1.000
    O123     O        0.67260    0.50497    0.17206    1.000
    C574     C        0.73220    0.44390    0.13030    1.000
    Cu42     Cu       0.10684    0.90852    0.68630    1.000
    O124     O        0.10236    0.85049    0.68566    1.000
    C575     C        0.11182    0.83232    0.72011    1.000
    C576     C        0.08514    0.80689    0.73896    1.000
    H616     H        0.06010    0.80190    0.72750    1.000
    C577     C        0.09547    0.78911    0.77435    1.000
    H617     H        0.07740    0.77190    0.78710    1.000
    C578     C        0.13236    0.79638    0.79134    1.000
    H618     H        0.13940    0.78410    0.81560    1.000
    C579     C        0.15892    0.82180    0.77249    1.000
    H619     H        0.18390    0.82670    0.78410    1.000
    C580     C        0.14926    0.84001    0.73700    1.000
    C581     C        0.17819    0.86660    0.71529    1.000
    H620     H        0.20300    0.86850    0.73060    1.000
    H621     H        0.18460    0.85480    0.68930    1.000
    N42      N        0.16146    0.90728    0.70924    1.000
    H622     H        0.15860    0.91750    0.73090    1.000
    C582     C        0.18495    0.93610    0.68494    1.000
    C583     C        0.22508    0.94768    0.70372    1.000
    H623     H        0.22300    0.97350    0.71720    1.000
    H624     H        0.23340    0.92760    0.72330    1.000
    C584     C        0.25460    0.94990    0.67020    1.000
    H625     H        0.28200    0.94600    0.67970    1.000
    H626     H        0.25280    0.97540    0.65600    1.000
    C585     C        0.24060    0.91460    0.64340    1.000
    H627     H        0.25170    0.91680    0.61650    1.000
    H628     H        0.24860    0.88900    0.65490    1.000
    C586     C        0.19571    0.91893    0.64297    1.000
    H629     H        0.18280    0.89300    0.63880    1.000
    H630     H        0.18730    0.93720    0.62180    1.000
    C587     C        0.15760    0.97193    0.67767    1.000
    O125     O        0.12002    0.96442    0.67656    1.000
    O126     O        0.17260    0.00497    0.67206    1.000
    C588     C        0.23220    0.94390    0.63030    1.000
    Cu43     Cu       0.10684    0.09148    0.81370    1.000
    O127     O        0.10236    0.14951    0.81434    1.000
    C589     C        0.11182    0.16768    0.77989    1.000
    C590     C        0.08514    0.19311    0.76104    1.000
    H631     H        0.06010    0.19810    0.77250    1.000
    C591     C        0.09547    0.21089    0.72565    1.000
    H632     H        0.07740    0.22810    0.71290    1.000
    C592     C        0.13236    0.20362    0.70866    1.000
    H633     H        0.13940    0.21590    0.68440    1.000
    C593     C        0.15892    0.17820    0.72751    1.000
    H634     H        0.18390    0.17330    0.71590    1.000
    C594     C        0.14926    0.15999    0.76300    1.000
    C595     C        0.17819    0.13340    0.78471    1.000
    H635     H        0.20300    0.13150    0.76940    1.000
    H636     H        0.18460    0.14520    0.81070    1.000
    N43      N        0.16146    0.09272    0.79076    1.000
    H637     H        0.15860    0.08250    0.76910    1.000
    C596     C        0.18495    0.06390    0.81506    1.000
    C597     C        0.22508    0.05232    0.79628    1.000
    H638     H        0.22300    0.02650    0.78280    1.000
    H639     H        0.23340    0.07240    0.77670    1.000
    C598     C        0.25460    0.05010    0.82980    1.000
    H640     H        0.28200    0.05400    0.82030    1.000
    H641     H        0.25280    0.02460    0.84400    1.000
    C599     C        0.24060    0.08540    0.85660    1.000
    H642     H        0.25170    0.08320    0.88350    1.000
    H643     H        0.24860    0.11100    0.84510    1.000
    C600     C        0.19571    0.08107    0.85703    1.000
    H644     H        0.18280    0.10700    0.86120    1.000
    H645     H        0.18730    0.06280    0.87820    1.000
    C601     C        0.15760    0.02807    0.82233    1.000
    O128     O        0.12002    0.03558    0.82344    1.000
    O129     O        0.17260    0.99503    0.82794    1.000
    C602     C        0.23220    0.05610    0.86970    1.000
    Cu44     Cu       0.60684    0.59148    0.31370    1.000
    O130     O        0.60236    0.64951    0.31434    1.000
    C603     C        0.61182    0.66768    0.27989    1.000
    C604     C        0.58514    0.69311    0.26104    1.000
    H646     H        0.56010    0.69810    0.27250    1.000
    C605     C        0.59547    0.71089    0.22565    1.000
    H647     H        0.57740    0.72810    0.21290    1.000
    C606     C        0.63236    0.70362    0.20866    1.000
    H648     H        0.63940    0.71590    0.18440    1.000
    C607     C        0.65892    0.67820    0.22751    1.000
    H649     H        0.68390    0.67330    0.21590    1.000
    C608     C        0.64926    0.65999    0.26300    1.000
    C609     C        0.67819    0.63340    0.28471    1.000
    H650     H        0.70300    0.63150    0.26940    1.000
    H651     H        0.68460    0.64520    0.31070    1.000
    N44      N        0.66146    0.59272    0.29076    1.000
    H652     H        0.65860    0.58250    0.26910    1.000
    C610     C        0.68495    0.56390    0.31506    1.000
    C611     C        0.72508    0.55232    0.29628    1.000
    H653     H        0.72300    0.52650    0.28280    1.000
    H654     H        0.73340    0.57240    0.27670    1.000
    C612     C        0.75460    0.55010    0.32980    1.000
    H655     H        0.78200    0.55400    0.32030    1.000
    H656     H        0.75280    0.52460    0.34400    1.000
    C613     C        0.74060    0.58540    0.35660    1.000
    H657     H        0.75170    0.58320    0.38350    1.000
    H658     H        0.74860    0.61100    0.34510    1.000
    C614     C        0.69571    0.58107    0.35703    1.000
    H659     H        0.68280    0.60700    0.36120    1.000
    H660     H        0.68730    0.56280    0.37820    1.000
    C615     C        0.65760    0.52807    0.32233    1.000
    O131     O        0.62002    0.53558    0.32344    1.000
    O132     O        0.67260    0.49503    0.32794    1.000
    C616     C        0.73220    0.55610    0.36970    1.000
    Cu45     Cu       0.39316    0.90852    0.31370    1.000
    O133     O        0.39764    0.85049    0.31434    1.000
    C617     C        0.38818    0.83232    0.27989    1.000
    C618     C        0.41486    0.80689    0.26104    1.000
    H661     H        0.43990    0.80190    0.27250    1.000
    C619     C        0.40453    0.78911    0.22565    1.000
    H662     H        0.42260    0.77190    0.21290    1.000
    C620     C        0.36764    0.79638    0.20866    1.000
    H663     H        0.36060    0.78410    0.18440    1.000
    C621     C        0.34108    0.82180    0.22751    1.000
    H664     H        0.31610    0.82670    0.21590    1.000
    C622     C        0.35074    0.84001    0.26300    1.000
    C623     C        0.32181    0.86660    0.28471    1.000
    H665     H        0.29700    0.86850    0.26940    1.000
    H666     H        0.31540    0.85480    0.31070    1.000
    N45      N        0.33854    0.90728    0.29076    1.000
    H667     H        0.34140    0.91750    0.26910    1.000
    C624     C        0.31505    0.93610    0.31506    1.000
    C625     C        0.27492    0.94768    0.29628    1.000
    H668     H        0.27700    0.97350    0.28280    1.000
    H669     H        0.26660    0.92760    0.27670    1.000
    C626     C        0.24540    0.94990    0.32980    1.000
    H670     H        0.21800    0.94600    0.32030    1.000
    H671     H        0.24720    0.97540    0.34400    1.000
    C627     C        0.25940    0.91460    0.35660    1.000
    H672     H        0.24830    0.91680    0.38350    1.000
    H673     H        0.25140    0.88900    0.34510    1.000
    C628     C        0.30429    0.91893    0.35703    1.000
    H674     H        0.31720    0.89300    0.36120    1.000
    H675     H        0.31270    0.93720    0.37820    1.000
    C629     C        0.34240    0.97193    0.32233    1.000
    O134     O        0.37998    0.96442    0.32344    1.000
    O135     O        0.32740    0.00497    0.32794    1.000
    C630     C        0.26780    0.94390    0.36970    1.000
    Cu46     Cu       0.89316    0.40852    0.81370    1.000
    O136     O        0.89764    0.35049    0.81434    1.000
    C631     C        0.88818    0.33232    0.77989    1.000
    C632     C        0.91486    0.30689    0.76104    1.000
    H676     H        0.93990    0.30190    0.77250    1.000
    C633     C        0.90453    0.28911    0.72565    1.000
    H677     H        0.92260    0.27190    0.71290    1.000
    C634     C        0.86764    0.29638    0.70866    1.000
    H678     H        0.86060    0.28410    0.68440    1.000
    C635     C        0.84108    0.32180    0.72751    1.000
    H679     H        0.81610    0.32670    0.71590    1.000
    C636     C        0.85074    0.34001    0.76300    1.000
    C637     C        0.82181    0.36660    0.78471    1.000
    H680     H        0.79700    0.36850    0.76940    1.000
    H681     H        0.81540    0.35480    0.81070    1.000
    N46      N        0.83854    0.40728    0.79076    1.000
    H682     H        0.84140    0.41750    0.76910    1.000
    C638     C        0.81505    0.43610    0.81506    1.000
    C639     C        0.77492    0.44768    0.79628    1.000
    H683     H        0.77700    0.47350    0.78280    1.000
    H684     H        0.76660    0.42760    0.77670    1.000
    C640     C        0.74540    0.44990    0.82980    1.000
    H685     H        0.71800    0.44600    0.82030    1.000
    H686     H        0.74720    0.47540    0.84400    1.000
    C641     C        0.75940    0.41460    0.85660    1.000
    H687     H        0.74830    0.41680    0.88350    1.000
    H688     H        0.75140    0.38900    0.84510    1.000
    C642     C        0.80429    0.41893    0.85703    1.000
    H689     H        0.81720    0.39300    0.86120    1.000
    H690     H        0.81270    0.43720    0.87820    1.000
    C643     C        0.84240    0.47193    0.82233    1.000
    O137     O        0.87998    0.46442    0.82344    1.000
    O138     O        0.82740    0.50497    0.82794    1.000
    C644     C        0.76780    0.44390    0.86970    1.000
    Cu47     Cu       0.89316    0.59148    0.68630    1.000
    O139     O        0.89764    0.64951    0.68566    1.000
    C645     C        0.88818    0.66768    0.72011    1.000
    C646     C        0.91486    0.69311    0.73896    1.000
    H691     H        0.93990    0.69810    0.72750    1.000
    C647     C        0.90453    0.71089    0.77435    1.000
    H692     H        0.92260    0.72810    0.78710    1.000
    C648     C        0.86764    0.70362    0.79134    1.000
    H693     H        0.86060    0.71590    0.81560    1.000
    C649     C        0.84108    0.67820    0.77249    1.000
    H694     H        0.81610    0.67330    0.78410    1.000
    C650     C        0.85074    0.65999    0.73700    1.000
    C651     C        0.82181    0.63340    0.71529    1.000
    H695     H        0.79700    0.63150    0.73060    1.000
    H696     H        0.81540    0.64520    0.68930    1.000
    N47      N        0.83854    0.59272    0.70924    1.000
    H697     H        0.84140    0.58250    0.73090    1.000
    C652     C        0.81505    0.56390    0.68494    1.000
    C653     C        0.77492    0.55232    0.70372    1.000
    H698     H        0.77700    0.52650    0.71720    1.000
    H699     H        0.76660    0.57240    0.72330    1.000
    C654     C        0.74540    0.55010    0.67020    1.000
    H700     H        0.71800    0.55400    0.67970    1.000
    H701     H        0.74720    0.52460    0.65600    1.000
    C655     C        0.75940    0.58540    0.64340    1.000
    H702     H        0.74830    0.58320    0.61650    1.000
    H703     H        0.75140    0.61100    0.65490    1.000
    C656     C        0.80429    0.58107    0.64297    1.000
    H704     H        0.81720    0.60700    0.63880    1.000
    H705     H        0.81270    0.56280    0.62180    1.000
    C657     C        0.84240    0.52807    0.67767    1.000
    O140     O        0.87998    0.53558    0.67656    1.000
    O141     O        0.82740    0.49503    0.67206    1.000
    C658     C        0.76780    0.55610    0.63030    1.000
    Cu48     Cu       0.39316    0.09148    0.18630    1.000
    O142     O        0.39764    0.14951    0.18566    1.000
    C659     C        0.38818    0.16768    0.22011    1.000
    C660     C        0.41486    0.19311    0.23896    1.000
    H706     H        0.43990    0.19810    0.22750    1.000
    C661     C        0.40453    0.21089    0.27435    1.000
    H707     H        0.42260    0.22810    0.28710    1.000
    C662     C        0.36764    0.20362    0.29134    1.000
    H708     H        0.36060    0.21590    0.31560    1.000
    C663     C        0.34108    0.17820    0.27249    1.000
    H709     H        0.31610    0.17330    0.28410    1.000
    C664     C        0.35074    0.15999    0.23700    1.000
    C665     C        0.32181    0.13340    0.21529    1.000
    H710     H        0.29700    0.13150    0.23060    1.000
    H711     H        0.31540    0.14520    0.18930    1.000
    N48      N        0.33854    0.09272    0.20924    1.000
    H712     H        0.34140    0.08250    0.23090    1.000
    C666     C        0.31505    0.06390    0.18494    1.000
    C667     C        0.27492    0.05232    0.20372    1.000
    H713     H        0.27700    0.02650    0.21720    1.000
    H714     H        0.26660    0.07240    0.22330    1.000
    C668     C        0.24540    0.05010    0.17020    1.000
    H715     H        0.21800    0.05400    0.17970    1.000
    H716     H        0.24720    0.02460    0.15600    1.000
    C669     C        0.25940    0.08540    0.14340    1.000
    H717     H        0.24830    0.08320    0.11650    1.000
    H718     H        0.25140    0.11100    0.15490    1.000
    C670     C        0.30429    0.08107    0.14297    1.000
    H719     H        0.31720    0.10700    0.13880    1.000
    H720     H        0.31270    0.06280    0.12180    1.000
    C671     C        0.34240    0.02807    0.17767    1.000
    O143     O        0.37998    0.03558    0.17656    1.000
    O144     O        0.32740    0.99503    0.17206    1.000
    C672     C        0.26780    0.05610    0.13030    1.000
    Cu49     Cu       0.93630    0.84148    0.14316    1.000
    O145     O        0.93566    0.89951    0.14764    1.000
    C673     C        0.97011    0.91768    0.13818    1.000
    C674     C        0.98896    0.94311    0.16486    1.000
    H721     H        0.97750    0.94810    0.18990    1.000
    C675     C        0.02435    0.96089    0.15453    1.000
    H722     H        0.03710    0.97810    0.17260    1.000
    C676     C        0.04134    0.95362    0.11764    1.000
    H723     H        0.06560    0.96590    0.11060    1.000
    C677     C        0.02249    0.92820    0.09108    1.000
    H724     H        0.03410    0.92330    0.06610    1.000
    C678     C        0.98700    0.90999    0.10074    1.000
    C679     C        0.96529    0.88340    0.07181    1.000
    H725     H        0.98060    0.88150    0.04700    1.000
    H726     H        0.93930    0.89520    0.06540    1.000
    N49      N        0.95924    0.84272    0.08854    1.000
    H727     H        0.98090    0.83250    0.09140    1.000
    C680     C        0.93494    0.81390    0.06505    1.000
    C681     C        0.95372    0.80232    0.02492    1.000
    H728     H        0.96720    0.77650    0.02700    1.000
    H729     H        0.97330    0.82240    0.01660    1.000
    C682     C        0.92020    0.80010    0.99540    1.000
    H730     H        0.92970    0.80400    0.96800    1.000
    H731     H        0.90600    0.77460    0.99720    1.000
    C683     C        0.89340    0.83540    0.00940    1.000
    H732     H        0.86650    0.83320    0.99830    1.000
    H733     H        0.90490    0.86100    0.00140    1.000
    C684     C        0.89297    0.83107    0.05429    1.000
    H734     H        0.88880    0.85700    0.06720    1.000
    H735     H        0.87180    0.81280    0.06270    1.000
    C685     C        0.92767    0.77807    0.09240    1.000
    O146     O        0.92656    0.78558    0.12998    1.000
    O147     O        0.92206    0.74503    0.07740    1.000
    C686     C        0.88030    0.80610    0.01780    1.000
    Cu50     Cu       0.43630    0.34148    0.64316    1.000
    O148     O        0.43566    0.39951    0.64764    1.000
    C687     C        0.47011    0.41768    0.63818    1.000
    C688     C        0.48896    0.44311    0.66486    1.000
    H736     H        0.47750    0.44810    0.68990    1.000
    C689     C        0.52435    0.46089    0.65453    1.000
    H737     H        0.53710    0.47810    0.67260    1.000
    C690     C        0.54134    0.45362    0.61764    1.000
    H738     H        0.56560    0.46590    0.61060    1.000
    C691     C        0.52249    0.42820    0.59108    1.000
    H739     H        0.53410    0.42330    0.56610    1.000
    C692     C        0.48700    0.40999    0.60074    1.000
    C693     C        0.46529    0.38340    0.57181    1.000
    H740     H        0.48060    0.38150    0.54700    1.000
    H741     H        0.43930    0.39520    0.56540    1.000
    N50      N        0.45924    0.34272    0.58854    1.000
    H742     H        0.48090    0.33250    0.59140    1.000
    C694     C        0.43494    0.31390    0.56505    1.000
    C695     C        0.45372    0.30232    0.52492    1.000
    H743     H        0.46720    0.27650    0.52700    1.000
    H744     H        0.47330    0.32240    0.51660    1.000
    C696     C        0.42020    0.30010    0.49540    1.000
    H745     H        0.42970    0.30400    0.46800    1.000
    H746     H        0.40600    0.27460    0.49720    1.000
    C697     C        0.39340    0.33540    0.50940    1.000
    H747     H        0.36650    0.33320    0.49830    1.000
    H748     H        0.40490    0.36100    0.50140    1.000
    C698     C        0.39297    0.33107    0.55429    1.000
    H749     H        0.38880    0.35700    0.56720    1.000
    H750     H        0.37180    0.31280    0.56270    1.000
    C699     C        0.42767    0.27807    0.59240    1.000
    O149     O        0.42656    0.28558    0.62998    1.000
    O150     O        0.42206    0.24503    0.57740    1.000
    C700     C        0.38030    0.30610    0.51780    1.000
    Cu51     Cu       0.56370    0.15852    0.64316    1.000
    O151     O        0.56434    0.10049    0.64764    1.000
    C701     C        0.52989    0.08232    0.63818    1.000
    C702     C        0.51104    0.05689    0.66486    1.000
    H751     H        0.52250    0.05190    0.68990    1.000
    C703     C        0.47565    0.03911    0.65453    1.000
    H752     H        0.46290    0.02190    0.67260    1.000
    C704     C        0.45866    0.04638    0.61764    1.000
    H753     H        0.43440    0.03410    0.61060    1.000
    C705     C        0.47751    0.07180    0.59108    1.000
    H754     H        0.46590    0.07670    0.56610    1.000
    C706     C        0.51300    0.09001    0.60074    1.000
    C707     C        0.53471    0.11660    0.57181    1.000
    H755     H        0.51940    0.11850    0.54700    1.000
    H756     H        0.56070    0.10480    0.56540    1.000
    N51      N        0.54076    0.15728    0.58854    1.000
    H757     H        0.51910    0.16750    0.59140    1.000
    C708     C        0.56506    0.18610    0.56505    1.000
    C709     C        0.54628    0.19768    0.52492    1.000
    H758     H        0.53280    0.22350    0.52700    1.000
    H759     H        0.52670    0.17760    0.51660    1.000
    C710     C        0.57980    0.19990    0.49540    1.000
    H760     H        0.57030    0.19600    0.46800    1.000
    H761     H        0.59400    0.22540    0.49720    1.000
    C711     C        0.60660    0.16460    0.50940    1.000
    H762     H        0.63350    0.16680    0.49830    1.000
    H763     H        0.59510    0.13900    0.50140    1.000
    C712     C        0.60703    0.16893    0.55429    1.000
    H764     H        0.61120    0.14300    0.56720    1.000
    H765     H        0.62820    0.18720    0.56270    1.000
    C713     C        0.57233    0.22193    0.59240    1.000
    O152     O        0.57344    0.21442    0.62998    1.000
    O153     O        0.57794    0.25497    0.57740    1.000
    C714     C        0.61970    0.19390    0.51780    1.000
    Cu52     Cu       0.06370    0.65852    0.14316    1.000
    O154     O        0.06434    0.60049    0.14764    1.000
    C715     C        0.02989    0.58232    0.13818    1.000
    C716     C        0.01104    0.55689    0.16486    1.000
    H766     H        0.02250    0.55190    0.18990    1.000
    C717     C        0.97565    0.53911    0.15453    1.000
    H767     H        0.96290    0.52190    0.17260    1.000
    C718     C        0.95866    0.54638    0.11764    1.000
    H768     H        0.93440    0.53410    0.11060    1.000
    C719     C        0.97751    0.57180    0.09108    1.000
    H769     H        0.96590    0.57670    0.06610    1.000
    C720     C        0.01300    0.59001    0.10074    1.000
    C721     C        0.03471    0.61660    0.07181    1.000
    H770     H        0.01940    0.61850    0.04700    1.000
    H771     H        0.06070    0.60480    0.06540    1.000
    N52      N        0.04076    0.65728    0.08854    1.000
    H772     H        0.01910    0.66750    0.09140    1.000
    C722     C        0.06506    0.68610    0.06505    1.000
    C723     C        0.04628    0.69768    0.02492    1.000
    H773     H        0.03280    0.72350    0.02700    1.000
    H774     H        0.02670    0.67760    0.01660    1.000
    C724     C        0.07980    0.69990    0.99540    1.000
    H775     H        0.07030    0.69600    0.96800    1.000
    H776     H        0.09400    0.72540    0.99720    1.000
    C725     C        0.10660    0.66460    0.00940    1.000
    H777     H        0.13350    0.66680    0.99830    1.000
    H778     H        0.09510    0.63900    0.00140    1.000
    C726     C        0.10703    0.66893    0.05429    1.000
    H779     H        0.11120    0.64300    0.06720    1.000
    H780     H        0.12820    0.68720    0.06270    1.000
    C727     C        0.07233    0.72193    0.09240    1.000
    O155     O        0.07344    0.71442    0.12998    1.000
    O156     O        0.07794    0.75497    0.07740    1.000
    C728     C        0.11970    0.69390    0.01780    1.000
    Cu53     Cu       0.06370    0.34148    0.35684    1.000
    O157     O        0.06434    0.39951    0.35236    1.000
    C729     C        0.02989    0.41768    0.36182    1.000
    C730     C        0.01104    0.44311    0.33514    1.000
    H781     H        0.02250    0.44810    0.31010    1.000
    C731     C        0.97565    0.46089    0.34547    1.000
    H782     H        0.96290    0.47810    0.32740    1.000
    C732     C        0.95866    0.45362    0.38236    1.000
    H783     H        0.93440    0.46590    0.38940    1.000
    C733     C        0.97751    0.42820    0.40892    1.000
    H784     H        0.96590    0.42330    0.43390    1.000
    C734     C        0.01300    0.40999    0.39926    1.000
    C735     C        0.03471    0.38340    0.42819    1.000
    H785     H        0.01940    0.38150    0.45300    1.000
    H786     H        0.06070    0.39520    0.43460    1.000
    N53      N        0.04076    0.34272    0.41146    1.000
    H787     H        0.01910    0.33250    0.40860    1.000
    C736     C        0.06506    0.31390    0.43495    1.000
    C737     C        0.04628    0.30232    0.47508    1.000
    H788     H        0.03280    0.27650    0.47300    1.000
    H789     H        0.02670    0.32240    0.48340    1.000
    C738     C        0.07980    0.30010    0.50460    1.000
    H790     H        0.07030    0.30400    0.53200    1.000
    H791     H        0.09400    0.27460    0.50280    1.000
    C739     C        0.10660    0.33540    0.49060    1.000
    H792     H        0.13350    0.33320    0.50170    1.000
    H793     H        0.09510    0.36100    0.49860    1.000
    C740     C        0.10703    0.33107    0.44571    1.000
    H794     H        0.11120    0.35700    0.43280    1.000
    H795     H        0.12820    0.31280    0.43730    1.000
    C741     C        0.07233    0.27807    0.40760    1.000
    O158     O        0.07344    0.28558    0.37002    1.000
    O159     O        0.07794    0.24503    0.42260    1.000
    C742     C        0.11970    0.30610    0.48220    1.000
    Cu54     Cu       0.56370    0.84148    0.85684    1.000
    O160     O        0.56434    0.89951    0.85236    1.000
    C743     C        0.52989    0.91768    0.86182    1.000
    C744     C        0.51104    0.94311    0.83514    1.000
    H796     H        0.52250    0.94810    0.81010    1.000
    C745     C        0.47565    0.96089    0.84547    1.000
    H797     H        0.46290    0.97810    0.82740    1.000
    C746     C        0.45866    0.95362    0.88236    1.000
    H798     H        0.43440    0.96590    0.88940    1.000
    C747     C        0.47751    0.92820    0.90892    1.000
    H799     H        0.46590    0.92330    0.93390    1.000
    C748     C        0.51300    0.90999    0.89926    1.000
    C749     C        0.53471    0.88340    0.92819    1.000
    H800     H        0.51940    0.88150    0.95300    1.000
    H801     H        0.56070    0.89520    0.93460    1.000
    N54      N        0.54076    0.84272    0.91146    1.000
    H802     H        0.51910    0.83250    0.90860    1.000
    C750     C        0.56506    0.81390    0.93495    1.000
    C751     C        0.54628    0.80232    0.97508    1.000
    H803     H        0.53280    0.77650    0.97300    1.000
    H804     H        0.52670    0.82240    0.98340    1.000
    C752     C        0.57980    0.80010    0.00460    1.000
    H805     H        0.57030    0.80400    0.03200    1.000
    H806     H        0.59400    0.77460    0.00280    1.000
    C753     C        0.60660    0.83540    0.99060    1.000
    H807     H        0.63350    0.83320    0.00170    1.000
    H808     H        0.59510    0.86100    0.99860    1.000
    C754     C        0.60703    0.83107    0.94571    1.000
    H809     H        0.61120    0.85700    0.93280    1.000
    H810     H        0.62820    0.81280    0.93730    1.000
    C755     C        0.57233    0.77807    0.90760    1.000
    O161     O        0.57344    0.78558    0.87002    1.000
    O162     O        0.57794    0.74503    0.92260    1.000
    C756     C        0.61970    0.80610    0.98220    1.000
    Cu55     Cu       0.43630    0.65852    0.85684    1.000
    O163     O        0.43566    0.60049    0.85236    1.000
    C757     C        0.47011    0.58232    0.86182    1.000
    C758     C        0.48896    0.55689    0.83514    1.000
    H811     H        0.47750    0.55190    0.81010    1.000
    C759     C        0.52435    0.53911    0.84547    1.000
    H812     H        0.53710    0.52190    0.82740    1.000
    C760     C        0.54134    0.54638    0.88236    1.000
    H813     H        0.56560    0.53410    0.88940    1.000
    C761     C        0.52249    0.57180    0.90892    1.000
    H814     H        0.53410    0.57670    0.93390    1.000
    C762     C        0.48700    0.59001    0.89926    1.000
    C763     C        0.46529    0.61660    0.92819    1.000
    H815     H        0.48060    0.61850    0.95300    1.000
    H816     H        0.43930    0.60480    0.93460    1.000
    N55      N        0.45924    0.65728    0.91146    1.000
    H817     H        0.48090    0.66750    0.90860    1.000
    C764     C        0.43494    0.68610    0.93495    1.000
    C765     C        0.45372    0.69768    0.97508    1.000
    H818     H        0.46720    0.72350    0.97300    1.000
    H819     H        0.47330    0.67760    0.98340    1.000
    C766     C        0.42020    0.69990    0.00460    1.000
    H820     H        0.42970    0.69600    0.03200    1.000
    H821     H        0.40600    0.72540    0.00280    1.000
    C767     C        0.39340    0.66460    0.99060    1.000
    H822     H        0.36650    0.66680    0.00170    1.000
    H823     H        0.40490    0.63900    0.99860    1.000
    C768     C        0.39297    0.66893    0.94571    1.000
    H824     H        0.38880    0.64300    0.93280    1.000
    H825     H        0.37180    0.68720    0.93730    1.000
    C769     C        0.42767    0.72193    0.90760    1.000
    O164     O        0.42656    0.71442    0.87002    1.000
    O165     O        0.42206    0.75497    0.92260    1.000
    C770     C        0.38030    0.69390    0.98220    1.000
    Cu56     Cu       0.93630    0.15852    0.35684    1.000
    O166     O        0.93566    0.10049    0.35236    1.000
    C771     C        0.97011    0.08232    0.36182    1.000
    C772     C        0.98896    0.05689    0.33514    1.000
    H826     H        0.97750    0.05190    0.31010    1.000
    C773     C        0.02435    0.03911    0.34547    1.000
    H827     H        0.03710    0.02190    0.32740    1.000
    C774     C        0.04134    0.04638    0.38236    1.000
    H828     H        0.06560    0.03410    0.38940    1.000
    C775     C        0.02249    0.07180    0.40892    1.000
    H829     H        0.03410    0.07670    0.43390    1.000
    C776     C        0.98700    0.09001    0.39926    1.000
    C777     C        0.96529    0.11660    0.42819    1.000
    H830     H        0.98060    0.11850    0.45300    1.000
    H831     H        0.93930    0.10480    0.43460    1.000
    N56      N        0.95924    0.15728    0.41146    1.000
    H832     H        0.98090    0.16750    0.40860    1.000
    C778     C        0.93494    0.18610    0.43495    1.000
    C779     C        0.95372    0.19768    0.47508    1.000
    H833     H        0.96720    0.22350    0.47300    1.000
    H834     H        0.97330    0.17760    0.48340    1.000
    C780     C        0.92020    0.19990    0.50460    1.000
    H835     H        0.92970    0.19600    0.53200    1.000
    H836     H        0.90600    0.22540    0.50280    1.000
    C781     C        0.89340    0.16460    0.49060    1.000
    H837     H        0.86650    0.16680    0.50170    1.000
    H838     H        0.90490    0.13900    0.49860    1.000
    C782     C        0.89297    0.16893    0.44571    1.000
    H839     H        0.88880    0.14300    0.43280    1.000
    H840     H        0.87180    0.18720    0.43730    1.000
    C783     C        0.92767    0.22193    0.40760    1.000
    O167     O        0.92656    0.21442    0.37002    1.000
    O168     O        0.92206    0.25497    0.42260    1.000
    C784     C        0.88030    0.19390    0.48220    1.000
    Cu57     Cu       0.14316    0.93630    0.84148    1.000
    O169     O        0.14764    0.93566    0.89951    1.000
    C785     C        0.13818    0.97011    0.91768    1.000
    C786     C        0.16486    0.98896    0.94311    1.000
    H841     H        0.18990    0.97750    0.94810    1.000
    C787     C        0.15453    0.02435    0.96089    1.000
    H842     H        0.17260    0.03710    0.97810    1.000
    C788     C        0.11764    0.04134    0.95362    1.000
    H843     H        0.11060    0.06560    0.96590    1.000
    C789     C        0.09108    0.02249    0.92820    1.000
    H844     H        0.06610    0.03410    0.92330    1.000
    C790     C        0.10074    0.98700    0.90999    1.000
    C791     C        0.07181    0.96529    0.88340    1.000
    H845     H        0.04700    0.98060    0.88150    1.000
    H846     H        0.06540    0.93930    0.89520    1.000
    N57      N        0.08854    0.95924    0.84272    1.000
    H847     H        0.09140    0.98090    0.83250    1.000
    C792     C        0.06505    0.93494    0.81390    1.000
    C793     C        0.02492    0.95372    0.80232    1.000
    H848     H        0.02700    0.96720    0.77650    1.000
    H849     H        0.01660    0.97330    0.82240    1.000
    C794     C        0.99540    0.92020    0.80010    1.000
    H850     H        0.96800    0.92970    0.80400    1.000
    H851     H        0.99720    0.90600    0.77460    1.000
    C795     C        0.00940    0.89340    0.83540    1.000
    H852     H        0.99830    0.86650    0.83320    1.000
    H853     H        0.00140    0.90490    0.86100    1.000
    C796     C        0.05429    0.89297    0.83107    1.000
    H854     H        0.06720    0.88880    0.85700    1.000
    H855     H        0.06270    0.87180    0.81280    1.000
    C797     C        0.09240    0.92767    0.77807    1.000
    O170     O        0.12998    0.92656    0.78558    1.000
    O171     O        0.07740    0.92206    0.74503    1.000
    C798     C        0.01780    0.88030    0.80610    1.000
    Cu58     Cu       0.64316    0.43630    0.34148    1.000
    O172     O        0.64764    0.43566    0.39951    1.000
    C799     C        0.63818    0.47011    0.41768    1.000
    C800     C        0.66486    0.48896    0.44311    1.000
    H856     H        0.68990    0.47750    0.44810    1.000
    C801     C        0.65453    0.52435    0.46089    1.000
    H857     H        0.67260    0.53710    0.47810    1.000
    C802     C        0.61764    0.54134    0.45362    1.000
    H858     H        0.61060    0.56560    0.46590    1.000
    C803     C        0.59108    0.52249    0.42820    1.000
    H859     H        0.56610    0.53410    0.42330    1.000
    C804     C        0.60074    0.48700    0.40999    1.000
    C805     C        0.57181    0.46529    0.38340    1.000
    H860     H        0.54700    0.48060    0.38150    1.000
    H861     H        0.56540    0.43930    0.39520    1.000
    N58      N        0.58854    0.45924    0.34272    1.000
    H862     H        0.59140    0.48090    0.33250    1.000
    C806     C        0.56505    0.43494    0.31390    1.000
    C807     C        0.52492    0.45372    0.30232    1.000
    H863     H        0.52700    0.46720    0.27650    1.000
    H864     H        0.51660    0.47330    0.32240    1.000
    C808     C        0.49540    0.42020    0.30010    1.000
    H865     H        0.46800    0.42970    0.30400    1.000
    H866     H        0.49720    0.40600    0.27460    1.000
    C809     C        0.50940    0.39340    0.33540    1.000
    H867     H        0.49830    0.36650    0.33320    1.000
    H868     H        0.50140    0.40490    0.36100    1.000
    C810     C        0.55429    0.39297    0.33107    1.000
    H869     H        0.56720    0.38880    0.35700    1.000
    H870     H        0.56270    0.37180    0.31280    1.000
    C811     C        0.59240    0.42767    0.27807    1.000
    O173     O        0.62998    0.42656    0.28558    1.000
    O174     O        0.57740    0.42206    0.24503    1.000
    C812     C        0.51780    0.38030    0.30610    1.000
    Cu59     Cu       0.64316    0.56370    0.15852    1.000
    O175     O        0.64764    0.56434    0.10049    1.000
    C813     C        0.63818    0.52989    0.08232    1.000
    C814     C        0.66486    0.51104    0.05689    1.000
    H871     H        0.68990    0.52250    0.05190    1.000
    C815     C        0.65453    0.47565    0.03911    1.000
    H872     H        0.67260    0.46290    0.02190    1.000
    C816     C        0.61764    0.45866    0.04638    1.000
    H873     H        0.61060    0.43440    0.03410    1.000
    C817     C        0.59108    0.47751    0.07180    1.000
    H874     H        0.56610    0.46590    0.07670    1.000
    C818     C        0.60074    0.51300    0.09001    1.000
    C819     C        0.57181    0.53471    0.11660    1.000
    H875     H        0.54700    0.51940    0.11850    1.000
    H876     H        0.56540    0.56070    0.10480    1.000
    N59      N        0.58854    0.54076    0.15728    1.000
    H877     H        0.59140    0.51910    0.16750    1.000
    C820     C        0.56505    0.56506    0.18610    1.000
    C821     C        0.52492    0.54628    0.19768    1.000
    H878     H        0.52700    0.53280    0.22350    1.000
    H879     H        0.51660    0.52670    0.17760    1.000
    C822     C        0.49540    0.57980    0.19990    1.000
    H880     H        0.46800    0.57030    0.19600    1.000
    H881     H        0.49720    0.59400    0.22540    1.000
    C823     C        0.50940    0.60660    0.16460    1.000
    H882     H        0.49830    0.63350    0.16680    1.000
    H883     H        0.50140    0.59510    0.13900    1.000
    C824     C        0.55429    0.60703    0.16893    1.000
    H884     H        0.56720    0.61120    0.14300    1.000
    H885     H        0.56270    0.62820    0.18720    1.000
    C825     C        0.59240    0.57233    0.22193    1.000
    O176     O        0.62998    0.57344    0.21442    1.000
    O177     O        0.57740    0.57794    0.25497    1.000
    C826     C        0.51780    0.61970    0.19390    1.000
    Cu60     Cu       0.14316    0.06370    0.65852    1.000
    O178     O        0.14764    0.06434    0.60049    1.000
    C827     C        0.13818    0.02989    0.58232    1.000
    C828     C        0.16486    0.01104    0.55689    1.000
    H886     H        0.18990    0.02250    0.55190    1.000
    C829     C        0.15453    0.97565    0.53911    1.000
    H887     H        0.17260    0.96290    0.52190    1.000
    C830     C        0.11764    0.95866    0.54638    1.000
    H888     H        0.11060    0.93440    0.53410    1.000
    C831     C        0.09108    0.97751    0.57180    1.000
    H889     H        0.06610    0.96590    0.57670    1.000
    C832     C        0.10074    0.01300    0.59001    1.000
    C833     C        0.07181    0.03471    0.61660    1.000
    H890     H        0.04700    0.01940    0.61850    1.000
    H891     H        0.06540    0.06070    0.60480    1.000
    N60      N        0.08854    0.04076    0.65728    1.000
    H892     H        0.09140    0.01910    0.66750    1.000
    C834     C        0.06505    0.06506    0.68610    1.000
    C835     C        0.02492    0.04628    0.69768    1.000
    H893     H        0.02700    0.03280    0.72350    1.000
    H894     H        0.01660    0.02670    0.67760    1.000
    C836     C        0.99540    0.07980    0.69990    1.000
    H895     H        0.96800    0.07030    0.69600    1.000
    H896     H        0.99720    0.09400    0.72540    1.000
    C837     C        0.00940    0.10660    0.66460    1.000
    H897     H        0.99830    0.13350    0.66680    1.000
    H898     H        0.00140    0.09510    0.63900    1.000
    C838     C        0.05429    0.10703    0.66893    1.000
    H899     H        0.06720    0.11120    0.64300    1.000
    H900     H        0.06270    0.12820    0.68720    1.000
    C839     C        0.09240    0.07233    0.72193    1.000
    O179     O        0.12998    0.07344    0.71442    1.000
    O180     O        0.07740    0.07794    0.75497    1.000
    C840     C        0.01780    0.11970    0.69390    1.000
    Cu61     Cu       0.35684    0.06370    0.34148    1.000
    O181     O        0.35236    0.06434    0.39951    1.000
    C841     C        0.36182    0.02989    0.41768    1.000
    C842     C        0.33514    0.01104    0.44311    1.000
    H901     H        0.31010    0.02250    0.44810    1.000
    C843     C        0.34547    0.97565    0.46089    1.000
    H902     H        0.32740    0.96290    0.47810    1.000
    C844     C        0.38236    0.95866    0.45362    1.000
    H903     H        0.38940    0.93440    0.46590    1.000
    C845     C        0.40892    0.97751    0.42820    1.000
    H904     H        0.43390    0.96590    0.42330    1.000
    C846     C        0.39926    0.01300    0.40999    1.000
    C847     C        0.42819    0.03471    0.38340    1.000
    H905     H        0.45300    0.01940    0.38150    1.000
    H906     H        0.43460    0.06070    0.39520    1.000
    N61      N        0.41146    0.04076    0.34272    1.000
    H907     H        0.40860    0.01910    0.33250    1.000
    C848     C        0.43495    0.06506    0.31390    1.000
    C849     C        0.47508    0.04628    0.30232    1.000
    H908     H        0.47300    0.03280    0.27650    1.000
    H909     H        0.48340    0.02670    0.32240    1.000
    C850     C        0.50460    0.07980    0.30010    1.000
    H910     H        0.53200    0.07030    0.30400    1.000
    H911     H        0.50280    0.09400    0.27460    1.000
    C851     C        0.49060    0.10660    0.33540    1.000
    H912     H        0.50170    0.13350    0.33320    1.000
    H913     H        0.49860    0.09510    0.36100    1.000
    C852     C        0.44571    0.10703    0.33107    1.000
    H914     H        0.43280    0.11120    0.35700    1.000
    H915     H        0.43730    0.12820    0.31280    1.000
    C853     C        0.40760    0.07233    0.27807    1.000
    O182     O        0.37002    0.07344    0.28558    1.000
    O183     O        0.42260    0.07794    0.24503    1.000
    C854     C        0.48220    0.11970    0.30610    1.000
    Cu62     Cu       0.85684    0.56370    0.84148    1.000
    O184     O        0.85236    0.56434    0.89951    1.000
    C855     C        0.86182    0.52989    0.91768    1.000
    C856     C        0.83514    0.51104    0.94311    1.000
    H916     H        0.81010    0.52250    0.94810    1.000
    C857     C        0.84547    0.47565    0.96089    1.000
    H917     H        0.82740    0.46290    0.97810    1.000
    C858     C        0.88236    0.45866    0.95362    1.000
    H918     H        0.88940    0.43440    0.96590    1.000
    C859     C        0.90892    0.47751    0.92820    1.000
    H919     H        0.93390    0.46590    0.92330    1.000
    C860     C        0.89926    0.51300    0.90999    1.000
    C861     C        0.92819    0.53471    0.88340    1.000
    H920     H        0.95300    0.51940    0.88150    1.000
    H921     H        0.93460    0.56070    0.89520    1.000
    N62      N        0.91146    0.54076    0.84272    1.000
    H922     H        0.90860    0.51910    0.83250    1.000
    C862     C        0.93495    0.56506    0.81390    1.000
    C863     C        0.97508    0.54628    0.80232    1.000
    H923     H        0.97300    0.53280    0.77650    1.000
    H924     H        0.98340    0.52670    0.82240    1.000
    C864     C        0.00460    0.57980    0.80010    1.000
    H925     H        0.03200    0.57030    0.80400    1.000
    H926     H        0.00280    0.59400    0.77460    1.000
    C865     C        0.99060    0.60660    0.83540    1.000
    H927     H        0.00170    0.63350    0.83320    1.000
    H928     H        0.99860    0.59510    0.86100    1.000
    C866     C        0.94571    0.60703    0.83107    1.000
    H929     H        0.93280    0.61120    0.85700    1.000
    H930     H        0.93730    0.62820    0.81280    1.000
    C867     C        0.90760    0.57233    0.77807    1.000
    O185     O        0.87002    0.57344    0.78558    1.000
    O186     O        0.92260    0.57794    0.74503    1.000
    C868     C        0.98220    0.61970    0.80610    1.000
    Cu63     Cu       0.85684    0.43630    0.65852    1.000
    O187     O        0.85236    0.43566    0.60049    1.000
    C869     C        0.86182    0.47011    0.58232    1.000
    C870     C        0.83514    0.48896    0.55689    1.000
    H931     H        0.81010    0.47750    0.55190    1.000
    C871     C        0.84547    0.52435    0.53911    1.000
    H932     H        0.82740    0.53710    0.52190    1.000
    C872     C        0.88236    0.54134    0.54638    1.000
    H933     H        0.88940    0.56560    0.53410    1.000
    C873     C        0.90892    0.52249    0.57180    1.000
    H934     H        0.93390    0.53410    0.57670    1.000
    C874     C        0.89926    0.48700    0.59001    1.000
    C875     C        0.92819    0.46529    0.61660    1.000
    H935     H        0.95300    0.48060    0.61850    1.000
    H936     H        0.93460    0.43930    0.60480    1.000
    N63      N        0.91146    0.45924    0.65728    1.000
    H937     H        0.90860    0.48090    0.66750    1.000
    C876     C        0.93495    0.43494    0.68610    1.000
    C877     C        0.97508    0.45372    0.69768    1.000
    H938     H        0.97300    0.46720    0.72350    1.000
    H939     H        0.98340    0.47330    0.67760    1.000
    C878     C        0.00460    0.42020    0.69990    1.000
    H940     H        0.03200    0.42970    0.69600    1.000
    H941     H        0.00280    0.40600    0.72540    1.000
    C879     C        0.99060    0.39340    0.66460    1.000
    H942     H        0.00170    0.36650    0.66680    1.000
    H943     H        0.99860    0.40490    0.63900    1.000
    C880     C        0.94571    0.39297    0.66893    1.000
    H944     H        0.93280    0.38880    0.64300    1.000
    H945     H        0.93730    0.37180    0.68720    1.000
    C881     C        0.90760    0.42767    0.72193    1.000
    O188     O        0.87002    0.42656    0.71442    1.000
    O189     O        0.92260    0.42206    0.75497    1.000
    C882     C        0.98220    0.38030    0.69390    1.000
    Cu64     Cu       0.35684    0.93630    0.15852    1.000
    O190     O        0.35236    0.93566    0.10049    1.000
    C883     C        0.36182    0.97011    0.08232    1.000
    C884     C        0.33514    0.98896    0.05689    1.000
    H946     H        0.31010    0.97750    0.05190    1.000
    C885     C        0.34547    0.02435    0.03911    1.000
    H947     H        0.32740    0.03710    0.02190    1.000
    C886     C        0.38236    0.04134    0.04638    1.000
    H948     H        0.38940    0.06560    0.03410    1.000
    C887     C        0.40892    0.02249    0.07180    1.000
    H949     H        0.43390    0.03410    0.07670    1.000
    C888     C        0.39926    0.98700    0.09001    1.000
    C889     C        0.42819    0.96529    0.11660    1.000
    H950     H        0.45300    0.98060    0.11850    1.000
    H951     H        0.43460    0.93930    0.10480    1.000
    N64      N        0.41146    0.95924    0.15728    1.000
    H952     H        0.40860    0.98090    0.16750    1.000
    C890     C        0.43495    0.93494    0.18610    1.000
    C891     C        0.47508    0.95372    0.19768    1.000
    H953     H        0.47300    0.96720    0.22350    1.000
    H954     H        0.48340    0.97330    0.17760    1.000
    C892     C        0.50460    0.92020    0.19990    1.000
    H955     H        0.53200    0.92970    0.19600    1.000
    H956     H        0.50280    0.90600    0.22540    1.000
    C893     C        0.49060    0.89340    0.16460    1.000
    H957     H        0.50170    0.86650    0.16680    1.000
    H958     H        0.49860    0.90490    0.13900    1.000
    C894     C        0.44571    0.89297    0.16893    1.000
    H959     H        0.43280    0.88880    0.14300    1.000
    H960     H        0.43730    0.87180    0.18720    1.000
    C895     C        0.40760    0.92767    0.22193    1.000
    O191     O        0.37002    0.92656    0.21442    1.000
    O192     O        0.42260    0.92206    0.25497    1.000
    C896     C        0.48220    0.88030    0.19390    1.000
    Cu65     Cu       0.84148    0.14316    0.93630    1.000
    O193     O        0.89951    0.14764    0.93566    1.000
    C897     C        0.91768    0.13818    0.97011    1.000
    C898     C        0.94311    0.16486    0.98896    1.000
    H961     H        0.94810    0.18990    0.97750    1.000
    C899     C        0.96089    0.15453    0.02435    1.000
    H962     H        0.97810    0.17260    0.03710    1.000
    C900     C        0.95362    0.11764    0.04134    1.000
    H963     H        0.96590    0.11060    0.06560    1.000
    C901     C        0.92820    0.09108    0.02249    1.000
    H964     H        0.92330    0.06610    0.03410    1.000
    C902     C        0.90999    0.10074    0.98700    1.000
    C903     C        0.88340    0.07181    0.96529    1.000
    H965     H        0.88150    0.04700    0.98060    1.000
    H966     H        0.89520    0.06540    0.93930    1.000
    N65      N        0.84272    0.08854    0.95924    1.000
    H967     H        0.83250    0.09140    0.98090    1.000
    C904     C        0.81390    0.06505    0.93494    1.000
    C905     C        0.80232    0.02492    0.95372    1.000
    H968     H        0.77650    0.02700    0.96720    1.000
    H969     H        0.82240    0.01660    0.97330    1.000
    C906     C        0.80010    0.99540    0.92020    1.000
    H970     H        0.80400    0.96800    0.92970    1.000
    H971     H        0.77460    0.99720    0.90600    1.000
    C907     C        0.83540    0.00940    0.89340    1.000
    H972     H        0.83320    0.99830    0.86650    1.000
    H973     H        0.86100    0.00140    0.90490    1.000
    C908     C        0.83107    0.05429    0.89297    1.000
    H974     H        0.85700    0.06720    0.88880    1.000
    H975     H        0.81280    0.06270    0.87180    1.000
    C909     C        0.77807    0.09240    0.92767    1.000
    O194     O        0.78558    0.12998    0.92656    1.000
    O195     O        0.74503    0.07740    0.92206    1.000
    C910     C        0.80610    0.01780    0.88030    1.000
    Cu66     Cu       0.34148    0.64316    0.43630    1.000
    O196     O        0.39951    0.64764    0.43566    1.000
    C911     C        0.41768    0.63818    0.47011    1.000
    C912     C        0.44311    0.66486    0.48896    1.000
    H976     H        0.44810    0.68990    0.47750    1.000
    C913     C        0.46089    0.65453    0.52435    1.000
    H977     H        0.47810    0.67260    0.53710    1.000
    C914     C        0.45362    0.61764    0.54134    1.000
    H978     H        0.46590    0.61060    0.56560    1.000
    C915     C        0.42820    0.59108    0.52249    1.000
    H979     H        0.42330    0.56610    0.53410    1.000
    C916     C        0.40999    0.60074    0.48700    1.000
    C917     C        0.38340    0.57181    0.46529    1.000
    H980     H        0.38150    0.54700    0.48060    1.000
    H981     H        0.39520    0.56540    0.43930    1.000
    N66      N        0.34272    0.58854    0.45924    1.000
    H982     H        0.33250    0.59140    0.48090    1.000
    C918     C        0.31390    0.56505    0.43494    1.000
    C919     C        0.30232    0.52492    0.45372    1.000
    H983     H        0.27650    0.52700    0.46720    1.000
    H984     H        0.32240    0.51660    0.47330    1.000
    C920     C        0.30010    0.49540    0.42020    1.000
    H985     H        0.30400    0.46800    0.42970    1.000
    H986     H        0.27460    0.49720    0.40600    1.000
    C921     C        0.33540    0.50940    0.39340    1.000
    H987     H        0.33320    0.49830    0.36650    1.000
    H988     H        0.36100    0.50140    0.40490    1.000
    C922     C        0.33107    0.55429    0.39297    1.000
    H989     H        0.35700    0.56720    0.38880    1.000
    H990     H        0.31280    0.56270    0.37180    1.000
    C923     C        0.27807    0.59240    0.42767    1.000
    O197     O        0.28558    0.62998    0.42656    1.000
    O198     O        0.24503    0.57740    0.42206    1.000
    C924     C        0.30610    0.51780    0.38030    1.000
    Cu67     Cu       0.15852    0.64316    0.56370    1.000
    O199     O        0.10049    0.64764    0.56434    1.000
    C925     C        0.08232    0.63818    0.52989    1.000
    C926     C        0.05689    0.66486    0.51104    1.000
    H991     H        0.05190    0.68990    0.52250    1.000
    C927     C        0.03911    0.65453    0.47565    1.000
    H992     H        0.02190    0.67260    0.46290    1.000
    C928     C        0.04638    0.61764    0.45866    1.000
    H993     H        0.03410    0.61060    0.43440    1.000
    C929     C        0.07180    0.59108    0.47751    1.000
    H994     H        0.07670    0.56610    0.46590    1.000
    C930     C        0.09001    0.60074    0.51300    1.000
    C931     C        0.11660    0.57181    0.53471    1.000
    H995     H        0.11850    0.54700    0.51940    1.000
    H996     H        0.10480    0.56540    0.56070    1.000
    N67      N        0.15728    0.58854    0.54076    1.000
    H997     H        0.16750    0.59140    0.51910    1.000
    C932     C        0.18610    0.56505    0.56506    1.000
    C933     C        0.19768    0.52492    0.54628    1.000
    H998     H        0.22350    0.52700    0.53280    1.000
    H999     H        0.17760    0.51660    0.52670    1.000
    C934     C        0.19990    0.49540    0.57980    1.000
    H1000    H        0.19600    0.46800    0.57030    1.000
    H1001    H        0.22540    0.49720    0.59400    1.000
    C935     C        0.16460    0.50940    0.60660    1.000
    H1002    H        0.16680    0.49830    0.63350    1.000
    H1003    H        0.13900    0.50140    0.59510    1.000
    C936     C        0.16893    0.55429    0.60703    1.000
    H1004    H        0.14300    0.56720    0.61120    1.000
    H1005    H        0.18720    0.56270    0.62820    1.000
    C937     C        0.22193    0.59240    0.57233    1.000
    O200     O        0.21442    0.62998    0.57344    1.000
    O201     O        0.25497    0.57740    0.57794    1.000
    C938     C        0.19390    0.51780    0.61970    1.000
    Cu68     Cu       0.65852    0.14316    0.06370    1.000
    O202     O        0.60049    0.14764    0.06434    1.000
    C939     C        0.58232    0.13818    0.02989    1.000
    C940     C        0.55689    0.16486    0.01104    1.000
    H1006    H        0.55190    0.18990    0.02250    1.000
    C941     C        0.53911    0.15453    0.97565    1.000
    H1007    H        0.52190    0.17260    0.96290    1.000
    C942     C        0.54638    0.11764    0.95866    1.000
    H1008    H        0.53410    0.11060    0.93440    1.000
    C943     C        0.57180    0.09108    0.97751    1.000
    H1009    H        0.57670    0.06610    0.96590    1.000
    C944     C        0.59001    0.10074    0.01300    1.000
    C945     C        0.61660    0.07181    0.03471    1.000
    H1010    H        0.61850    0.04700    0.01940    1.000
    H1011    H        0.60480    0.06540    0.06070    1.000
    N68      N        0.65728    0.08854    0.04076    1.000
    H1012    H        0.66750    0.09140    0.01910    1.000
    C946     C        0.68610    0.06505    0.06506    1.000
    C947     C        0.69768    0.02492    0.04628    1.000
    H1013    H        0.72350    0.02700    0.03280    1.000
    H1014    H        0.67760    0.01660    0.02670    1.000
    C948     C        0.69990    0.99540    0.07980    1.000
    H1015    H        0.69600    0.96800    0.07030    1.000
    H1016    H        0.72540    0.99720    0.09400    1.000
    C949     C        0.66460    0.00940    0.10660    1.000
    H1017    H        0.66680    0.99830    0.13350    1.000
    H1018    H        0.63900    0.00140    0.09510    1.000
    C950     C        0.66893    0.05429    0.10703    1.000
    H1019    H        0.64300    0.06720    0.11120    1.000
    H1020    H        0.68720    0.06270    0.12820    1.000
    C951     C        0.72193    0.09240    0.07233    1.000
    O203     O        0.71442    0.12998    0.07344    1.000
    O204     O        0.75497    0.07740    0.07794    1.000
    C952     C        0.69390    0.01780    0.11970    1.000
    Cu69     Cu       0.34148    0.35684    0.06370    1.000
    O205     O        0.39951    0.35236    0.06434    1.000
    C953     C        0.41768    0.36182    0.02989    1.000
    C954     C        0.44311    0.33514    0.01104    1.000
    H1021    H        0.44810    0.31010    0.02250    1.000
    C955     C        0.46089    0.34547    0.97565    1.000
    H1022    H        0.47810    0.32740    0.96290    1.000
    C956     C        0.45362    0.38236    0.95866    1.000
    H1023    H        0.46590    0.38940    0.93440    1.000
    C957     C        0.42820    0.40892    0.97751    1.000
    H1024    H        0.42330    0.43390    0.96590    1.000
    C958     C        0.40999    0.39926    0.01300    1.000
    C959     C        0.38340    0.42819    0.03471    1.000
    H1025    H        0.38150    0.45300    0.01940    1.000
    H1026    H        0.39520    0.43460    0.06070    1.000
    N69      N        0.34272    0.41146    0.04076    1.000
    H1027    H        0.33250    0.40860    0.01910    1.000
    C960     C        0.31390    0.43495    0.06506    1.000
    C961     C        0.30232    0.47508    0.04628    1.000
    H1028    H        0.27650    0.47300    0.03280    1.000
    H1029    H        0.32240    0.48340    0.02670    1.000
    C962     C        0.30010    0.50460    0.07980    1.000
    H1030    H        0.30400    0.53200    0.07030    1.000
    H1031    H        0.27460    0.50280    0.09400    1.000
    C963     C        0.33540    0.49060    0.10660    1.000
    H1032    H        0.33320    0.50170    0.13350    1.000
    H1033    H        0.36100    0.49860    0.09510    1.000
    C964     C        0.33107    0.44571    0.10703    1.000
    H1034    H        0.35700    0.43280    0.11120    1.000
    H1035    H        0.31280    0.43730    0.12820    1.000
    C965     C        0.27807    0.40760    0.07233    1.000
    O206     O        0.28558    0.37002    0.07344    1.000
    O207     O        0.24503    0.42260    0.07794    1.000
    C966     C        0.30610    0.48220    0.11970    1.000
    Cu70     Cu       0.84148    0.85684    0.56370    1.000
    O208     O        0.89951    0.85236    0.56434    1.000
    C967     C        0.91768    0.86182    0.52989    1.000
    C968     C        0.94311    0.83514    0.51104    1.000
    H1036    H        0.94810    0.81010    0.52250    1.000
    C969     C        0.96089    0.84547    0.47565    1.000
    H1037    H        0.97810    0.82740    0.46290    1.000
    C970     C        0.95362    0.88236    0.45866    1.000
    H1038    H        0.96590    0.88940    0.43440    1.000
    C971     C        0.92820    0.90892    0.47751    1.000
    H1039    H        0.92330    0.93390    0.46590    1.000
    C972     C        0.90999    0.89926    0.51300    1.000
    C973     C        0.88340    0.92819    0.53471    1.000
    H1040    H        0.88150    0.95300    0.51940    1.000
    H1041    H        0.89520    0.93460    0.56070    1.000
    N70      N        0.84272    0.91146    0.54076    1.000
    H1042    H        0.83250    0.90860    0.51910    1.000
    C974     C        0.81390    0.93495    0.56506    1.000
    C975     C        0.80232    0.97508    0.54628    1.000
    H1043    H        0.77650    0.97300    0.53280    1.000
    H1044    H        0.82240    0.98340    0.52670    1.000
    C976     C        0.80010    0.00460    0.57980    1.000
    H1045    H        0.80400    0.03200    0.57030    1.000
    H1046    H        0.77460    0.00280    0.59400    1.000
    C977     C        0.83540    0.99060    0.60660    1.000
    H1047    H        0.83320    0.00170    0.63350    1.000
    H1048    H        0.86100    0.99860    0.59510    1.000
    C978     C        0.83107    0.94571    0.60703    1.000
    H1049    H        0.85700    0.93280    0.61120    1.000
    H1050    H        0.81280    0.93730    0.62820    1.000
    C979     C        0.77807    0.90760    0.57233    1.000
    O209     O        0.78558    0.87002    0.57344    1.000
    O210     O        0.74503    0.92260    0.57794    1.000
    C980     C        0.80610    0.98220    0.61970    1.000
    Cu71     Cu       0.65852    0.85684    0.43630    1.000
    O211     O        0.60049    0.85236    0.43566    1.000
    C981     C        0.58232    0.86182    0.47011    1.000
    C982     C        0.55689    0.83514    0.48896    1.000
    H1051    H        0.55190    0.81010    0.47750    1.000
    C983     C        0.53911    0.84547    0.52435    1.000
    H1052    H        0.52190    0.82740    0.53710    1.000
    C984     C        0.54638    0.88236    0.54134    1.000
    H1053    H        0.53410    0.88940    0.56560    1.000
    C985     C        0.57180    0.90892    0.52249    1.000
    H1054    H        0.57670    0.93390    0.53410    1.000
    C986     C        0.59001    0.89926    0.48700    1.000
    C987     C        0.61660    0.92819    0.46529    1.000
    H1055    H        0.61850    0.95300    0.48060    1.000
    H1056    H        0.60480    0.93460    0.43930    1.000
    N71      N        0.65728    0.91146    0.45924    1.000
    H1057    H        0.66750    0.90860    0.48090    1.000
    C988     C        0.68610    0.93495    0.43494    1.000
    C989     C        0.69768    0.97508    0.45372    1.000
    H1058    H        0.72350    0.97300    0.46720    1.000
    H1059    H        0.67760    0.98340    0.47330    1.000
    C990     C        0.69990    0.00460    0.42020    1.000
    H1060    H        0.69600    0.03200    0.42970    1.000
    H1061    H        0.72540    0.00280    0.40600    1.000
    C991     C        0.66460    0.99060    0.39340    1.000
    H1062    H        0.66680    0.00170    0.36650    1.000
    H1063    H        0.63900    0.99860    0.40490    1.000
    C992     C        0.66893    0.94571    0.39297    1.000
    H1064    H        0.64300    0.93280    0.38880    1.000
    H1065    H        0.68720    0.93730    0.37180    1.000
    C993     C        0.72193    0.90760    0.42767    1.000
    O212     O        0.71442    0.87002    0.42656    1.000
    O213     O        0.75497    0.92260    0.42206    1.000
    C994     C        0.69390    0.98220    0.38030    1.000
    Cu72     Cu       0.15852    0.35684    0.93630    1.000
    O214     O        0.10049    0.35236    0.93566    1.000
    C995     C        0.08232    0.36182    0.97011    1.000
    C996     C        0.05689    0.33514    0.98896    1.000
    H1066    H        0.05190    0.31010    0.97750    1.000
    C997     C        0.03911    0.34547    0.02435    1.000
    H1067    H        0.02190    0.32740    0.03710    1.000
    C998     C        0.04638    0.38236    0.04134    1.000
    H1068    H        0.03410    0.38940    0.06560    1.000
    C999     C        0.07180    0.40892    0.02249    1.000
    H1069    H        0.07670    0.43390    0.03410    1.000
    C1000    C        0.09001    0.39926    0.98700    1.000
    C1001    C        0.11660    0.42819    0.96529    1.000
    H1070    H        0.11850    0.45300    0.98060    1.000
    H1071    H        0.10480    0.43460    0.93930    1.000
    N72      N        0.15728    0.41146    0.95924    1.000
    H1072    H        0.16750    0.40860    0.98090    1.000
    C1002    C        0.18610    0.43495    0.93494    1.000
    C1003    C        0.19768    0.47508    0.95372    1.000
    H1073    H        0.22350    0.47300    0.96720    1.000
    H1074    H        0.17760    0.48340    0.97330    1.000
    C1004    C        0.19990    0.50460    0.92020    1.000
    H1075    H        0.19600    0.53200    0.92970    1.000
    H1076    H        0.22540    0.50280    0.90600    1.000
    C1005    C        0.16460    0.49060    0.89340    1.000
    H1077    H        0.16680    0.50170    0.86650    1.000
    H1078    H        0.13900    0.49860    0.90490    1.000
    C1006    C        0.16893    0.44571    0.89297    1.000
    H1079    H        0.14300    0.43280    0.88880    1.000
    H1080    H        0.18720    0.43730    0.87180    1.000
    C1007    C        0.22193    0.40760    0.92767    1.000
    O215     O        0.21442    0.37002    0.92656    1.000
    O216     O        0.25497    0.42260    0.92206    1.000
    C1008    C        0.19390    0.48220    0.88030    1.000
    Cu73     Cu       0.09148    0.68630    0.60684    1.000
    O217     O        0.14951    0.68566    0.60236    1.000
    C1009    C        0.16768    0.72011    0.61182    1.000
    C1010    C        0.19311    0.73896    0.58514    1.000
    H1081    H        0.19810    0.72750    0.56010    1.000
    C1011    C        0.21089    0.77435    0.59547    1.000
    H1082    H        0.22810    0.78710    0.57740    1.000
    C1012    C        0.20362    0.79134    0.63236    1.000
    H1083    H        0.21590    0.81560    0.63940    1.000
    C1013    C        0.17820    0.77249    0.65892    1.000
    H1084    H        0.17330    0.78410    0.68390    1.000
    C1014    C        0.15999    0.73700    0.64926    1.000
    C1015    C        0.13340    0.71529    0.67819    1.000
    H1085    H        0.13150    0.73060    0.70300    1.000
    H1086    H        0.14520    0.68930    0.68460    1.000
    N73      N        0.09272    0.70924    0.66146    1.000
    H1087    H        0.08250    0.73090    0.65860    1.000
    C1016    C        0.06390    0.68494    0.68495    1.000
    C1017    C        0.05232    0.70372    0.72508    1.000
    H1088    H        0.02650    0.71720    0.72300    1.000
    H1089    H        0.07240    0.72330    0.73340    1.000
    C1018    C        0.05010    0.67020    0.75460    1.000
    H1090    H        0.05400    0.67970    0.78200    1.000
    H1091    H        0.02460    0.65600    0.75280    1.000
    C1019    C        0.08540    0.64340    0.74060    1.000
    H1092    H        0.08320    0.61650    0.75170    1.000
    H1093    H        0.11100    0.65490    0.74860    1.000
    C1020    C        0.08107    0.64297    0.69571    1.000
    H1094    H        0.10700    0.63880    0.68280    1.000
    H1095    H        0.06280    0.62180    0.68730    1.000
    C1021    C        0.02807    0.67767    0.65760    1.000
    O218     O        0.03558    0.67656    0.62002    1.000
    O219     O        0.99503    0.67206    0.67260    1.000
    C1022    C        0.05610    0.63030    0.73220    1.000
    Cu74     Cu       0.59148    0.18630    0.10684    1.000
    O220     O        0.64951    0.18566    0.10236    1.000
    C1023    C        0.66768    0.22011    0.11182    1.000
    C1024    C        0.69311    0.23896    0.08514    1.000
    H1096    H        0.69810    0.22750    0.06010    1.000
    C1025    C        0.71089    0.27435    0.09547    1.000
    H1097    H        0.72810    0.28710    0.07740    1.000
    C1026    C        0.70362    0.29134    0.13236    1.000
    H1098    H        0.71590    0.31560    0.13940    1.000
    C1027    C        0.67820    0.27249    0.15892    1.000
    H1099    H        0.67330    0.28410    0.18390    1.000
    C1028    C        0.65999    0.23700    0.14926    1.000
    C1029    C        0.63340    0.21529    0.17819    1.000
    H1100    H        0.63150    0.23060    0.20300    1.000
    H1101    H        0.64520    0.18930    0.18460    1.000
    N74      N        0.59272    0.20924    0.16146    1.000
    H1102    H        0.58250    0.23090    0.15860    1.000
    C1030    C        0.56390    0.18494    0.18495    1.000
    C1031    C        0.55232    0.20372    0.22508    1.000
    H1103    H        0.52650    0.21720    0.22300    1.000
    H1104    H        0.57240    0.22330    0.23340    1.000
    C1032    C        0.55010    0.17020    0.25460    1.000
    H1105    H        0.55400    0.17970    0.28200    1.000
    H1106    H        0.52460    0.15600    0.25280    1.000
    C1033    C        0.58540    0.14340    0.24060    1.000
    H1107    H        0.58320    0.11650    0.25170    1.000
    H1108    H        0.61100    0.15490    0.24860    1.000
    C1034    C        0.58107    0.14297    0.19571    1.000
    H1109    H        0.60700    0.13880    0.18280    1.000
    H1110    H        0.56280    0.12180    0.18730    1.000
    C1035    C        0.52807    0.17767    0.15760    1.000
    O221     O        0.53558    0.17656    0.12002    1.000
    O222     O        0.49503    0.17206    0.17260    1.000
    C1036    C        0.55610    0.13030    0.23220    1.000
    Cu75     Cu       0.40852    0.31370    0.10684    1.000
    O223     O        0.35049    0.31434    0.10236    1.000
    C1037    C        0.33232    0.27989    0.11182    1.000
    C1038    C        0.30689    0.26104    0.08514    1.000
    H1111    H        0.30190    0.27250    0.06010    1.000
    C1039    C        0.28911    0.22565    0.09547    1.000
    H1112    H        0.27190    0.21290    0.07740    1.000
    C1040    C        0.29638    0.20866    0.13236    1.000
    H1113    H        0.28410    0.18440    0.13940    1.000
    C1041    C        0.32180    0.22751    0.15892    1.000
    H1114    H        0.32670    0.21590    0.18390    1.000
    C1042    C        0.34001    0.26300    0.14926    1.000
    C1043    C        0.36660    0.28471    0.17819    1.000
    H1115    H        0.36850    0.26940    0.20300    1.000
    H1116    H        0.35480    0.31070    0.18460    1.000
    N75      N        0.40728    0.29076    0.16146    1.000
    H1117    H        0.41750    0.26910    0.15860    1.000
    C1044    C        0.43610    0.31506    0.18495    1.000
    C1045    C        0.44768    0.29628    0.22508    1.000
    H1118    H        0.47350    0.28280    0.22300    1.000
    H1119    H        0.42760    0.27670    0.23340    1.000
    C1046    C        0.44990    0.32980    0.25460    1.000
    H1120    H        0.44600    0.32030    0.28200    1.000
    H1121    H        0.47540    0.34400    0.25280    1.000
    C1047    C        0.41460    0.35660    0.24060    1.000
    H1122    H        0.41680    0.38350    0.25170    1.000
    H1123    H        0.38900    0.34510    0.24860    1.000
    C1048    C        0.41893    0.35703    0.19571    1.000
    H1124    H        0.39300    0.36120    0.18280    1.000
    H1125    H        0.43720    0.37820    0.18730    1.000
    C1049    C        0.47193    0.32233    0.15760    1.000
    O224     O        0.46442    0.32344    0.12002    1.000
    O225     O        0.50497    0.32794    0.17260    1.000
    C1050    C        0.44390    0.36970    0.23220    1.000
    Cu76     Cu       0.90852    0.81370    0.60684    1.000
    O226     O        0.85049    0.81434    0.60236    1.000
    C1051    C        0.83232    0.77989    0.61182    1.000
    C1052    C        0.80689    0.76104    0.58514    1.000
    H1126    H        0.80190    0.77250    0.56010    1.000
    C1053    C        0.78911    0.72565    0.59547    1.000
    H1127    H        0.77190    0.71290    0.57740    1.000
    C1054    C        0.79638    0.70866    0.63236    1.000
    H1128    H        0.78410    0.68440    0.63940    1.000
    C1055    C        0.82180    0.72751    0.65892    1.000
    H1129    H        0.82670    0.71590    0.68390    1.000
    C1056    C        0.84001    0.76300    0.64926    1.000
    C1057    C        0.86660    0.78471    0.67819    1.000
    H1130    H        0.86850    0.76940    0.70300    1.000
    H1131    H        0.85480    0.81070    0.68460    1.000
    N76      N        0.90728    0.79076    0.66146    1.000
    H1132    H        0.91750    0.76910    0.65860    1.000
    C1058    C        0.93610    0.81506    0.68495    1.000
    C1059    C        0.94768    0.79628    0.72508    1.000
    H1133    H        0.97350    0.78280    0.72300    1.000
    H1134    H        0.92760    0.77670    0.73340    1.000
    C1060    C        0.94990    0.82980    0.75460    1.000
    H1135    H        0.94600    0.82030    0.78200    1.000
    H1136    H        0.97540    0.84400    0.75280    1.000
    C1061    C        0.91460    0.85660    0.74060    1.000
    H1137    H        0.91680    0.88350    0.75170    1.000
    H1138    H        0.88900    0.84510    0.74860    1.000
    C1062    C        0.91893    0.85703    0.69571    1.000
    H1139    H        0.89300    0.86120    0.68280    1.000
    H1140    H        0.93720    0.87820    0.68730    1.000
    C1063    C        0.97193    0.82233    0.65760    1.000
    O227     O        0.96442    0.82344    0.62002    1.000
    O228     O        0.00497    0.82794    0.67260    1.000
    C1064    C        0.94390    0.86970    0.73220    1.000
    Cu77     Cu       0.59148    0.81370    0.39316    1.000
    O229     O        0.64951    0.81434    0.39764    1.000
    C1065    C        0.66768    0.77989    0.38818    1.000
    C1066    C        0.69311    0.76104    0.41486    1.000
    H1141    H        0.69810    0.77250    0.43990    1.000
    C1067    C        0.71089    0.72565    0.40453    1.000
    H1142    H        0.72810    0.71290    0.42260    1.000
    C1068    C        0.70362    0.70866    0.36764    1.000
    H1143    H        0.71590    0.68440    0.36060    1.000
    C1069    C        0.67820    0.72751    0.34108    1.000
    H1144    H        0.67330    0.71590    0.31610    1.000
    C1070    C        0.65999    0.76300    0.35074    1.000
    C1071    C        0.63340    0.78471    0.32181    1.000
    H1145    H        0.63150    0.76940    0.29700    1.000
    H1146    H        0.64520    0.81070    0.31540    1.000
    N77      N        0.59272    0.79076    0.33854    1.000
    H1147    H        0.58250    0.76910    0.34140    1.000
    C1072    C        0.56390    0.81506    0.31505    1.000
    C1073    C        0.55232    0.79628    0.27492    1.000
    H1148    H        0.52650    0.78280    0.27700    1.000
    H1149    H        0.57240    0.77670    0.26660    1.000
    C1074    C        0.55010    0.82980    0.24540    1.000
    H1150    H        0.55400    0.82030    0.21800    1.000
    H1151    H        0.52460    0.84400    0.24720    1.000
    C1075    C        0.58540    0.85660    0.25940    1.000
    H1152    H        0.58320    0.88350    0.24830    1.000
    H1153    H        0.61100    0.84510    0.25140    1.000
    C1076    C        0.58107    0.85703    0.30429    1.000
    H1154    H        0.60700    0.86120    0.31720    1.000
    H1155    H        0.56280    0.87820    0.31270    1.000
    C1077    C        0.52807    0.82233    0.34240    1.000
    O230     O        0.53558    0.82344    0.37998    1.000
    O231     O        0.49503    0.82794    0.32740    1.000
    C1078    C        0.55610    0.86970    0.26780    1.000
    Cu78     Cu       0.09148    0.31370    0.89316    1.000
    O232     O        0.14951    0.31434    0.89764    1.000
    C1079    C        0.16768    0.27989    0.88818    1.000
    C1080    C        0.19311    0.26104    0.91486    1.000
    H1156    H        0.19810    0.27250    0.93990    1.000
    C1081    C        0.21089    0.22565    0.90453    1.000
    H1157    H        0.22810    0.21290    0.92260    1.000
    C1082    C        0.20362    0.20866    0.86764    1.000
    H1158    H        0.21590    0.18440    0.86060    1.000
    C1083    C        0.17820    0.22751    0.84108    1.000
    H1159    H        0.17330    0.21590    0.81610    1.000
    C1084    C        0.15999    0.26300    0.85074    1.000
    C1085    C        0.13340    0.28471    0.82181    1.000
    H1160    H        0.13150    0.26940    0.79700    1.000
    H1161    H        0.14520    0.31070    0.81540    1.000
    N78      N        0.09272    0.29076    0.83854    1.000
    H1162    H        0.08250    0.26910    0.84140    1.000
    C1086    C        0.06390    0.31506    0.81505    1.000
    C1087    C        0.05232    0.29628    0.77492    1.000
    H1163    H        0.02650    0.28280    0.77700    1.000
    H1164    H        0.07240    0.27670    0.76660    1.000
    C1088    C        0.05010    0.32980    0.74540    1.000
    H1165    H        0.05400    0.32030    0.71800    1.000
    H1166    H        0.02460    0.34400    0.74720    1.000
    C1089    C        0.08540    0.35660    0.75940    1.000
    H1167    H        0.08320    0.38350    0.74830    1.000
    H1168    H        0.11100    0.34510    0.75140    1.000
    C1090    C        0.08107    0.35703    0.80429    1.000
    H1169    H        0.10700    0.36120    0.81720    1.000
    H1170    H        0.06280    0.37820    0.81270    1.000
    C1091    C        0.02807    0.32233    0.84240    1.000
    O233     O        0.03558    0.32344    0.87998    1.000
    O234     O        0.99503    0.32794    0.82740    1.000
    C1092    C        0.05610    0.36970    0.76780    1.000
    Cu79     Cu       0.90852    0.18630    0.89316    1.000
    O235     O        0.85049    0.18566    0.89764    1.000
    C1093    C        0.83232    0.22011    0.88818    1.000
    C1094    C        0.80689    0.23896    0.91486    1.000
    H1171    H        0.80190    0.22750    0.93990    1.000
    C1095    C        0.78911    0.27435    0.90453    1.000
    H1172    H        0.77190    0.28710    0.92260    1.000
    C1096    C        0.79638    0.29134    0.86764    1.000
    H1173    H        0.78410    0.31560    0.86060    1.000
    C1097    C        0.82180    0.27249    0.84108    1.000
    H1174    H        0.82670    0.28410    0.81610    1.000
    C1098    C        0.84001    0.23700    0.85074    1.000
    C1099    C        0.86660    0.21529    0.82181    1.000
    H1175    H        0.86850    0.23060    0.79700    1.000
    H1176    H        0.85480    0.18930    0.81540    1.000
    N79      N        0.90728    0.20924    0.83854    1.000
    H1177    H        0.91750    0.23090    0.84140    1.000
    C1100    C        0.93610    0.18494    0.81505    1.000
    C1101    C        0.94768    0.20372    0.77492    1.000
    H1178    H        0.97350    0.21720    0.77700    1.000
    H1179    H        0.92760    0.22330    0.76660    1.000
    C1102    C        0.94990    0.17020    0.74540    1.000
    H1180    H        0.94600    0.17970    0.71800    1.000
    H1181    H        0.97540    0.15600    0.74720    1.000
    C1103    C        0.91460    0.14340    0.75940    1.000
    H1182    H        0.91680    0.11650    0.74830    1.000
    H1183    H        0.88900    0.15490    0.75140    1.000
    C1104    C        0.91893    0.14297    0.80429    1.000
    H1184    H        0.89300    0.13880    0.81720    1.000
    H1185    H        0.93720    0.12180    0.81270    1.000
    C1105    C        0.97193    0.17767    0.84240    1.000
    O236     O        0.96442    0.17656    0.87998    1.000
    O237     O        0.00497    0.17206    0.82740    1.000
    C1106    C        0.94390    0.13030    0.76780    1.000
    Cu80     Cu       0.40852    0.68630    0.39316    1.000
    O238     O        0.35049    0.68566    0.39764    1.000
    C1107    C        0.33232    0.72011    0.38818    1.000
    C1108    C        0.30689    0.73896    0.41486    1.000
    H1186    H        0.30190    0.72750    0.43990    1.000
    C1109    C        0.28911    0.77435    0.40453    1.000
    H1187    H        0.27190    0.78710    0.42260    1.000
    C1110    C        0.29638    0.79134    0.36764    1.000
    H1188    H        0.28410    0.81560    0.36060    1.000
    C1111    C        0.32180    0.77249    0.34108    1.000
    H1189    H        0.32670    0.78410    0.31610    1.000
    C1112    C        0.34001    0.73700    0.35074    1.000
    C1113    C        0.36660    0.71529    0.32181    1.000
    H1190    H        0.36850    0.73060    0.29700    1.000
    H1191    H        0.35480    0.68930    0.31540    1.000
    N80      N        0.40728    0.70924    0.33854    1.000
    H1192    H        0.41750    0.73090    0.34140    1.000
    C1114    C        0.43610    0.68494    0.31505    1.000
    C1115    C        0.44768    0.70372    0.27492    1.000
    H1193    H        0.47350    0.71720    0.27700    1.000
    H1194    H        0.42760    0.72330    0.26660    1.000
    C1116    C        0.44990    0.67020    0.24540    1.000
    H1195    H        0.44600    0.67970    0.21800    1.000
    H1196    H        0.47540    0.65600    0.24720    1.000
    C1117    C        0.41460    0.64340    0.25940    1.000
    H1197    H        0.41680    0.61650    0.24830    1.000
    H1198    H        0.38900    0.65490    0.25140    1.000
    C1118    C        0.41893    0.64297    0.30429    1.000
    H1199    H        0.39300    0.63880    0.31720    1.000
    H1200    H        0.43720    0.62180    0.31270    1.000
    C1119    C        0.47193    0.67767    0.34240    1.000
    O239     O        0.46442    0.67656    0.37998    1.000
    O240     O        0.50497    0.67206    0.32740    1.000
    C1120    C        0.44390    0.63030    0.26780    1.000
    Cu81     Cu       0.18630    0.89316    0.90852    1.000
    O241     O        0.18566    0.89764    0.85049    1.000
    C1121    C        0.22011    0.88818    0.83232    1.000
    C1122    C        0.23896    0.91486    0.80689    1.000
    H1201    H        0.22750    0.93990    0.80190    1.000
    C1123    C        0.27435    0.90453    0.78911    1.000
    H1202    H        0.28710    0.92260    0.77190    1.000
    C1124    C        0.29134    0.86764    0.79638    1.000
    H1203    H        0.31560    0.86060    0.78410    1.000
    C1125    C        0.27249    0.84108    0.82180    1.000
    H1204    H        0.28410    0.81610    0.82670    1.000
    C1126    C        0.23700    0.85074    0.84001    1.000
    C1127    C        0.21529    0.82181    0.86660    1.000
    H1205    H        0.23060    0.79700    0.86850    1.000
    H1206    H        0.18930    0.81540    0.85480    1.000
    N81      N        0.20924    0.83854    0.90728    1.000
    H1207    H        0.23090    0.84140    0.91750    1.000
    C1128    C        0.18494    0.81505    0.93610    1.000
    C1129    C        0.20372    0.77492    0.94768    1.000
    H1208    H        0.21720    0.77700    0.97350    1.000
    H1209    H        0.22330    0.76660    0.92760    1.000
    C1130    C        0.17020    0.74540    0.94990    1.000
    H1210    H        0.17970    0.71800    0.94600    1.000
    H1211    H        0.15600    0.74720    0.97540    1.000
    C1131    C        0.14340    0.75940    0.91460    1.000
    H1212    H        0.11650    0.74830    0.91680    1.000
    H1213    H        0.15490    0.75140    0.88900    1.000
    C1132    C        0.14297    0.80429    0.91893    1.000
    H1214    H        0.13880    0.81720    0.89300    1.000
    H1215    H        0.12180    0.81270    0.93720    1.000
    C1133    C        0.17767    0.84240    0.97193    1.000
    O242     O        0.17656    0.87998    0.96442    1.000
    O243     O        0.17206    0.82740    0.00497    1.000
    C1134    C        0.13030    0.76780    0.94390    1.000
    Cu82     Cu       0.68630    0.39316    0.40852    1.000
    O244     O        0.68566    0.39764    0.35049    1.000
    C1135    C        0.72011    0.38818    0.33232    1.000
    C1136    C        0.73896    0.41486    0.30689    1.000
    H1216    H        0.72750    0.43990    0.30190    1.000
    C1137    C        0.77435    0.40453    0.28911    1.000
    H1217    H        0.78710    0.42260    0.27190    1.000
    C1138    C        0.79134    0.36764    0.29638    1.000
    H1218    H        0.81560    0.36060    0.28410    1.000
    C1139    C        0.77249    0.34108    0.32180    1.000
    H1219    H        0.78410    0.31610    0.32670    1.000
    C1140    C        0.73700    0.35074    0.34001    1.000
    C1141    C        0.71529    0.32181    0.36660    1.000
    H1220    H        0.73060    0.29700    0.36850    1.000
    H1221    H        0.68930    0.31540    0.35480    1.000
    N82      N        0.70924    0.33854    0.40728    1.000
    H1222    H        0.73090    0.34140    0.41750    1.000
    C1142    C        0.68494    0.31505    0.43610    1.000
    C1143    C        0.70372    0.27492    0.44768    1.000
    H1223    H        0.71720    0.27700    0.47350    1.000
    H1224    H        0.72330    0.26660    0.42760    1.000
    C1144    C        0.67020    0.24540    0.44990    1.000
    H1225    H        0.67970    0.21800    0.44600    1.000
    H1226    H        0.65600    0.24720    0.47540    1.000
    C1145    C        0.64340    0.25940    0.41460    1.000
    H1227    H        0.61650    0.24830    0.41680    1.000
    H1228    H        0.65490    0.25140    0.38900    1.000
    C1146    C        0.64297    0.30429    0.41893    1.000
    H1229    H        0.63880    0.31720    0.39300    1.000
    H1230    H        0.62180    0.31270    0.43720    1.000
    C1147    C        0.67767    0.34240    0.47193    1.000
    O245     O        0.67656    0.37998    0.46442    1.000
    O246     O        0.67206    0.32740    0.50497    1.000
    C1148    C        0.63030    0.26780    0.44390    1.000
    Cu83     Cu       0.81370    0.39316    0.59148    1.000
    O247     O        0.81434    0.39764    0.64951    1.000
    C1149    C        0.77989    0.38818    0.66768    1.000
    C1150    C        0.76104    0.41486    0.69311    1.000
    H1231    H        0.77250    0.43990    0.69810    1.000
    C1151    C        0.72565    0.40453    0.71089    1.000
    H1232    H        0.71290    0.42260    0.72810    1.000
    C1152    C        0.70866    0.36764    0.70362    1.000
    H1233    H        0.68440    0.36060    0.71590    1.000
    C1153    C        0.72751    0.34108    0.67820    1.000
    H1234    H        0.71590    0.31610    0.67330    1.000
    C1154    C        0.76300    0.35074    0.65999    1.000
    C1155    C        0.78471    0.32181    0.63340    1.000
    H1235    H        0.76940    0.29700    0.63150    1.000
    H1236    H        0.81070    0.31540    0.64520    1.000
    N83      N        0.79076    0.33854    0.59272    1.000
    H1237    H        0.76910    0.34140    0.58250    1.000
    C1156    C        0.81506    0.31505    0.56390    1.000
    C1157    C        0.79628    0.27492    0.55232    1.000
    H1238    H        0.78280    0.27700    0.52650    1.000
    H1239    H        0.77670    0.26660    0.57240    1.000
    C1158    C        0.82980    0.24540    0.55010    1.000
    H1240    H        0.82030    0.21800    0.55400    1.000
    H1241    H        0.84400    0.24720    0.52460    1.000
    C1159    C        0.85660    0.25940    0.58540    1.000
    H1242    H        0.88350    0.24830    0.58320    1.000
    H1243    H        0.84510    0.25140    0.61100    1.000
    C1160    C        0.85703    0.30429    0.58107    1.000
    H1244    H        0.86120    0.31720    0.60700    1.000
    H1245    H        0.87820    0.31270    0.56280    1.000
    C1161    C        0.82233    0.34240    0.52807    1.000
    O248     O        0.82344    0.37998    0.53558    1.000
    O249     O        0.82794    0.32740    0.49503    1.000
    C1162    C        0.86970    0.26780    0.55610    1.000
    Cu84     Cu       0.31370    0.89316    0.09148    1.000
    O250     O        0.31434    0.89764    0.14951    1.000
    C1163    C        0.27989    0.88818    0.16768    1.000
    C1164    C        0.26104    0.91486    0.19311    1.000
    H1246    H        0.27250    0.93990    0.19810    1.000
    C1165    C        0.22565    0.90453    0.21089    1.000
    H1247    H        0.21290    0.92260    0.22810    1.000
    C1166    C        0.20866    0.86764    0.20362    1.000
    H1248    H        0.18440    0.86060    0.21590    1.000
    C1167    C        0.22751    0.84108    0.17820    1.000
    H1249    H        0.21590    0.81610    0.17330    1.000
    C1168    C        0.26300    0.85074    0.15999    1.000
    C1169    C        0.28471    0.82181    0.13340    1.000
    H1250    H        0.26940    0.79700    0.13150    1.000
    H1251    H        0.31070    0.81540    0.14520    1.000
    N84      N        0.29076    0.83854    0.09272    1.000
    H1252    H        0.26910    0.84140    0.08250    1.000
    C1170    C        0.31506    0.81505    0.06390    1.000
    C1171    C        0.29628    0.77492    0.05232    1.000
    H1253    H        0.28280    0.77700    0.02650    1.000
    H1254    H        0.27670    0.76660    0.07240    1.000
    C1172    C        0.32980    0.74540    0.05010    1.000
    H1255    H        0.32030    0.71800    0.05400    1.000
    H1256    H        0.34400    0.74720    0.02460    1.000
    C1173    C        0.35660    0.75940    0.08540    1.000
    H1257    H        0.38350    0.74830    0.08320    1.000
    H1258    H        0.34510    0.75140    0.11100    1.000
    C1174    C        0.35703    0.80429    0.08107    1.000
    H1259    H        0.36120    0.81720    0.10700    1.000
    H1260    H        0.37820    0.81270    0.06280    1.000
    C1175    C        0.32233    0.84240    0.02807    1.000
    O251     O        0.32344    0.87998    0.03558    1.000
    O252     O        0.32794    0.82740    0.99503    1.000
    C1176    C        0.36970    0.76780    0.05610    1.000
    Cu85     Cu       0.31370    0.10684    0.40852    1.000
    O253     O        0.31434    0.10236    0.35049    1.000
    C1177    C        0.27989    0.11182    0.33232    1.000
    C1178    C        0.26104    0.08514    0.30689    1.000
    H1261    H        0.27250    0.06010    0.30190    1.000
    C1179    C        0.22565    0.09547    0.28911    1.000
    H1262    H        0.21290    0.07740    0.27190    1.000
    C1180    C        0.20866    0.13236    0.29638    1.000
    H1263    H        0.18440    0.13940    0.28410    1.000
    C1181    C        0.22751    0.15892    0.32180    1.000
    H1264    H        0.21590    0.18390    0.32670    1.000
    C1182    C        0.26300    0.14926    0.34001    1.000
    C1183    C        0.28471    0.17819    0.36660    1.000
    H1265    H        0.26940    0.20300    0.36850    1.000
    H1266    H        0.31070    0.18460    0.35480    1.000
    N85      N        0.29076    0.16146    0.40728    1.000
    H1267    H        0.26910    0.15860    0.41750    1.000
    C1184    C        0.31506    0.18495    0.43610    1.000
    C1185    C        0.29628    0.22508    0.44768    1.000
    H1268    H        0.28280    0.22300    0.47350    1.000
    H1269    H        0.27670    0.23340    0.42760    1.000
    C1186    C        0.32980    0.25460    0.44990    1.000
    H1270    H        0.32030    0.28200    0.44600    1.000
    H1271    H        0.34400    0.25280    0.47540    1.000
    C1187    C        0.35660    0.24060    0.41460    1.000
    H1272    H        0.38350    0.25170    0.41680    1.000
    H1273    H        0.34510    0.24860    0.38900    1.000
    C1188    C        0.35703    0.19571    0.41893    1.000
    H1274    H        0.36120    0.18280    0.39300    1.000
    H1275    H        0.37820    0.18730    0.43720    1.000
    C1189    C        0.32233    0.15760    0.47193    1.000
    O254     O        0.32344    0.12002    0.46442    1.000
    O255     O        0.32794    0.17260    0.50497    1.000
    C1190    C        0.36970    0.23220    0.44390    1.000
    Cu86     Cu       0.81370    0.60684    0.90852    1.000
    O256     O        0.81434    0.60236    0.85049    1.000
    C1191    C        0.77989    0.61182    0.83232    1.000
    C1192    C        0.76104    0.58514    0.80689    1.000
    H1276    H        0.77250    0.56010    0.80190    1.000
    C1193    C        0.72565    0.59547    0.78911    1.000
    H1277    H        0.71290    0.57740    0.77190    1.000
    C1194    C        0.70866    0.63236    0.79638    1.000
    H1278    H        0.68440    0.63940    0.78410    1.000
    C1195    C        0.72751    0.65892    0.82180    1.000
    H1279    H        0.71590    0.68390    0.82670    1.000
    C1196    C        0.76300    0.64926    0.84001    1.000
    C1197    C        0.78471    0.67819    0.86660    1.000
    H1280    H        0.76940    0.70300    0.86850    1.000
    H1281    H        0.81070    0.68460    0.85480    1.000
    N86      N        0.79076    0.66146    0.90728    1.000
    H1282    H        0.76910    0.65860    0.91750    1.000
    C1198    C        0.81506    0.68495    0.93610    1.000
    C1199    C        0.79628    0.72508    0.94768    1.000
    H1283    H        0.78280    0.72300    0.97350    1.000
    H1284    H        0.77670    0.73340    0.92760    1.000
    C1200    C        0.82980    0.75460    0.94990    1.000
    H1285    H        0.82030    0.78200    0.94600    1.000
    H1286    H        0.84400    0.75280    0.97540    1.000
    C1201    C        0.85660    0.74060    0.91460    1.000
    H1287    H        0.88350    0.75170    0.91680    1.000
    H1288    H        0.84510    0.74860    0.88900    1.000
    C1202    C        0.85703    0.69571    0.91893    1.000
    H1289    H        0.86120    0.68280    0.89300    1.000
    H1290    H        0.87820    0.68730    0.93720    1.000
    C1203    C        0.82233    0.65760    0.97193    1.000
    O257     O        0.82344    0.62002    0.96442    1.000
    O258     O        0.82794    0.67260    0.00497    1.000
    C1204    C        0.86970    0.73220    0.94390    1.000
    Cu87     Cu       0.68630    0.60684    0.09148    1.000
    O259     O        0.68566    0.60236    0.14951    1.000
    C1205    C        0.72011    0.61182    0.16768    1.000
    C1206    C        0.73896    0.58514    0.19311    1.000
    H1291    H        0.72750    0.56010    0.19810    1.000
    C1207    C        0.77435    0.59547    0.21089    1.000
    H1292    H        0.78710    0.57740    0.22810    1.000
    C1208    C        0.79134    0.63236    0.20362    1.000
    H1293    H        0.81560    0.63940    0.21590    1.000
    C1209    C        0.77249    0.65892    0.17820    1.000
    H1294    H        0.78410    0.68390    0.17330    1.000
    C1210    C        0.73700    0.64926    0.15999    1.000
    C1211    C        0.71529    0.67819    0.13340    1.000
    H1295    H        0.73060    0.70300    0.13150    1.000
    H1296    H        0.68930    0.68460    0.14520    1.000
    N87      N        0.70924    0.66146    0.09272    1.000
    H1297    H        0.73090    0.65860    0.08250    1.000
    C1212    C        0.68494    0.68495    0.06390    1.000
    C1213    C        0.70372    0.72508    0.05232    1.000
    H1298    H        0.71720    0.72300    0.02650    1.000
    H1299    H        0.72330    0.73340    0.07240    1.000
    C1214    C        0.67020    0.75460    0.05010    1.000
    H1300    H        0.67970    0.78200    0.05400    1.000
    H1301    H        0.65600    0.75280    0.02460    1.000
    C1215    C        0.64340    0.74060    0.08540    1.000
    H1302    H        0.61650    0.75170    0.08320    1.000
    H1303    H        0.65490    0.74860    0.11100    1.000
    C1216    C        0.64297    0.69571    0.08107    1.000
    H1304    H        0.63880    0.68280    0.10700    1.000
    H1305    H        0.62180    0.68730    0.06280    1.000
    C1217    C        0.67767    0.65760    0.02807    1.000
    O260     O        0.67656    0.62002    0.03558    1.000
    O261     O        0.67206    0.67260    0.99503    1.000
    C1218    C        0.63030    0.73220    0.05610    1.000
    Cu88     Cu       0.18630    0.10684    0.59148    1.000
    O262     O        0.18566    0.10236    0.64951    1.000
    C1219    C        0.22011    0.11182    0.66768    1.000
    C1220    C        0.23896    0.08514    0.69311    1.000
    H1306    H        0.22750    0.06010    0.69810    1.000
    C1221    C        0.27435    0.09547    0.71089    1.000
    H1307    H        0.28710    0.07740    0.72810    1.000
    C1222    C        0.29134    0.13236    0.70362    1.000
    H1308    H        0.31560    0.13940    0.71590    1.000
    C1223    C        0.27249    0.15892    0.67820    1.000
    H1309    H        0.28410    0.18390    0.67330    1.000
    C1224    C        0.23700    0.14926    0.65999    1.000
    C1225    C        0.21529    0.17819    0.63340    1.000
    H1310    H        0.23060    0.20300    0.63150    1.000
    H1311    H        0.18930    0.18460    0.64520    1.000
    N88      N        0.20924    0.16146    0.59272    1.000
    H1312    H        0.23090    0.15860    0.58250    1.000
    C1226    C        0.18494    0.18495    0.56390    1.000
    C1227    C        0.20372    0.22508    0.55232    1.000
    H1313    H        0.21720    0.22300    0.52650    1.000
    H1314    H        0.22330    0.23340    0.57240    1.000
    C1228    C        0.17020    0.25460    0.55010    1.000
    H1315    H        0.17970    0.28200    0.55400    1.000
    H1316    H        0.15600    0.25280    0.52460    1.000
    C1229    C        0.14340    0.24060    0.58540    1.000
    H1317    H        0.11650    0.25170    0.58320    1.000
    H1318    H        0.15490    0.24860    0.61100    1.000
    C1230    C        0.14297    0.19571    0.58107    1.000
    H1319    H        0.13880    0.18280    0.60700    1.000
    H1320    H        0.12180    0.18730    0.56280    1.000
    C1231    C        0.17767    0.15760    0.52807    1.000
    O263     O        0.17656    0.12002    0.53558    1.000
    O264     O        0.17206    0.17260    0.49503    1.000
    C1232    C        0.13030    0.23220    0.55610    1.000
    Cu89     Cu       0.39316    0.59148    0.81370    1.000
    O265     O        0.39764    0.64951    0.81434    1.000
    C1233    C        0.38818    0.66768    0.77989    1.000
    C1234    C        0.41486    0.69311    0.76104    1.000
    H1321    H        0.43990    0.69810    0.77250    1.000
    C1235    C        0.40453    0.71089    0.72565    1.000
    H1322    H        0.42260    0.72810    0.71290    1.000
    C1236    C        0.36764    0.70362    0.70866    1.000
    H1323    H        0.36060    0.71590    0.68440    1.000
    C1237    C        0.34108    0.67820    0.72751    1.000
    H1324    H        0.31610    0.67330    0.71590    1.000
    C1238    C        0.35074    0.65999    0.76300    1.000
    C1239    C        0.32181    0.63340    0.78471    1.000
    H1325    H        0.29700    0.63150    0.76940    1.000
    H1326    H        0.31540    0.64520    0.81070    1.000
    N89      N        0.33854    0.59272    0.79076    1.000
    H1327    H        0.34140    0.58250    0.76910    1.000
    C1240    C        0.31505    0.56390    0.81506    1.000
    C1241    C        0.27492    0.55232    0.79628    1.000
    H1328    H        0.27700    0.52650    0.78280    1.000
    H1329    H        0.26660    0.57240    0.77670    1.000
    C1242    C        0.24540    0.55010    0.82980    1.000
    H1330    H        0.21800    0.55400    0.82030    1.000
    H1331    H        0.24720    0.52460    0.84400    1.000
    C1243    C        0.25940    0.58540    0.85660    1.000
    H1332    H        0.24830    0.58320    0.88350    1.000
    H1333    H        0.25140    0.61100    0.84510    1.000
    C1244    C        0.30429    0.58107    0.85703    1.000
    H1334    H        0.31720    0.60700    0.86120    1.000
    H1335    H        0.31270    0.56280    0.87820    1.000
    C1245    C        0.34240    0.52807    0.82233    1.000
    O266     O        0.37998    0.53558    0.82344    1.000
    O267     O        0.32740    0.49503    0.82794    1.000
    C1246    C        0.26780    0.55610    0.86970    1.000
    Cu90     Cu       0.89316    0.09148    0.31370    1.000
    O268     O        0.89764    0.14951    0.31434    1.000
    C1247    C        0.88818    0.16768    0.27989    1.000
    C1248    C        0.91486    0.19311    0.26104    1.000
    H1336    H        0.93990    0.19810    0.27250    1.000
    C1249    C        0.90453    0.21089    0.22565    1.000
    H1337    H        0.92260    0.22810    0.21290    1.000
    C1250    C        0.86764    0.20362    0.20866    1.000
    H1338    H        0.86060    0.21590    0.18440    1.000
    C1251    C        0.84108    0.17820    0.22751    1.000
    H1339    H        0.81610    0.17330    0.21590    1.000
    C1252    C        0.85074    0.15999    0.26300    1.000
    C1253    C        0.82181    0.13340    0.28471    1.000
    H1340    H        0.79700    0.13150    0.26940    1.000
    H1341    H        0.81540    0.14520    0.31070    1.000
    N90      N        0.83854    0.09272    0.29076    1.000
    H1342    H        0.84140    0.08250    0.26910    1.000
    C1254    C        0.81505    0.06390    0.31506    1.000
    C1255    C        0.77492    0.05232    0.29628    1.000
    H1343    H        0.77700    0.02650    0.28280    1.000
    H1344    H        0.76660    0.07240    0.27670    1.000
    C1256    C        0.74540    0.05010    0.32980    1.000
    H1345    H        0.71800    0.05400    0.32030    1.000
    H1346    H        0.74720    0.02460    0.34400    1.000
    C1257    C        0.75940    0.08540    0.35660    1.000
    H1347    H        0.74830    0.08320    0.38350    1.000
    H1348    H        0.75140    0.11100    0.34510    1.000
    C1258    C        0.80429    0.08107    0.35703    1.000
    H1349    H        0.81720    0.10700    0.36120    1.000
    H1350    H        0.81270    0.06280    0.37820    1.000
    C1259    C        0.84240    0.02807    0.32233    1.000
    O269     O        0.87998    0.03558    0.32344    1.000
    O270     O        0.82740    0.99503    0.32794    1.000
    C1260    C        0.76780    0.05610    0.36970    1.000
    Cu91     Cu       0.89316    0.90852    0.18630    1.000
    O271     O        0.89764    0.85049    0.18566    1.000
    C1261    C        0.88818    0.83232    0.22011    1.000
    C1262    C        0.91486    0.80689    0.23896    1.000
    H1351    H        0.93990    0.80190    0.22750    1.000
    C1263    C        0.90453    0.78911    0.27435    1.000
    H1352    H        0.92260    0.77190    0.28710    1.000
    C1264    C        0.86764    0.79638    0.29134    1.000
    H1353    H        0.86060    0.78410    0.31560    1.000
    C1265    C        0.84108    0.82180    0.27249    1.000
    H1354    H        0.81610    0.82670    0.28410    1.000
    C1266    C        0.85074    0.84001    0.23700    1.000
    C1267    C        0.82181    0.86660    0.21529    1.000
    H1355    H        0.79700    0.86850    0.23060    1.000
    H1356    H        0.81540    0.85480    0.18930    1.000
    N91      N        0.83854    0.90728    0.20924    1.000
    H1357    H        0.84140    0.91750    0.23090    1.000
    C1268    C        0.81505    0.93610    0.18494    1.000
    C1269    C        0.77492    0.94768    0.20372    1.000
    H1358    H        0.77700    0.97350    0.21720    1.000
    H1359    H        0.76660    0.92760    0.22330    1.000
    C1270    C        0.74540    0.94990    0.17020    1.000
    H1360    H        0.71800    0.94600    0.17970    1.000
    H1361    H        0.74720    0.97540    0.15600    1.000
    C1271    C        0.75940    0.91460    0.14340    1.000
    H1362    H        0.74830    0.91680    0.11650    1.000
    H1363    H        0.75140    0.88900    0.15490    1.000
    C1272    C        0.80429    0.91893    0.14297    1.000
    H1364    H        0.81720    0.89300    0.13880    1.000
    H1365    H        0.81270    0.93720    0.12180    1.000
    C1273    C        0.84240    0.97193    0.17767    1.000
    O272     O        0.87998    0.96442    0.17656    1.000
    O273     O        0.82740    0.00497    0.17206    1.000
    C1274    C        0.76780    0.94390    0.13030    1.000
    Cu92     Cu       0.39316    0.40852    0.68630    1.000
    O274     O        0.39764    0.35049    0.68566    1.000
    C1275    C        0.38818    0.33232    0.72011    1.000
    C1276    C        0.41486    0.30689    0.73896    1.000
    H1366    H        0.43990    0.30190    0.72750    1.000
    C1277    C        0.40453    0.28911    0.77435    1.000
    H1367    H        0.42260    0.27190    0.78710    1.000
    C1278    C        0.36764    0.29638    0.79134    1.000
    H1368    H        0.36060    0.28410    0.81560    1.000
    C1279    C        0.34108    0.32180    0.77249    1.000
    H1369    H        0.31610    0.32670    0.78410    1.000
    C1280    C        0.35074    0.34001    0.73700    1.000
    C1281    C        0.32181    0.36660    0.71529    1.000
    H1370    H        0.29700    0.36850    0.73060    1.000
    H1371    H        0.31540    0.35480    0.68930    1.000
    N92      N        0.33854    0.40728    0.70924    1.000
    H1372    H        0.34140    0.41750    0.73090    1.000
    C1282    C        0.31505    0.43610    0.68494    1.000
    C1283    C        0.27492    0.44768    0.70372    1.000
    H1373    H        0.27700    0.47350    0.71720    1.000
    H1374    H        0.26660    0.42760    0.72330    1.000
    C1284    C        0.24540    0.44990    0.67020    1.000
    H1375    H        0.21800    0.44600    0.67970    1.000
    H1376    H        0.24720    0.47540    0.65600    1.000
    C1285    C        0.25940    0.41460    0.64340    1.000
    H1377    H        0.24830    0.41680    0.61650    1.000
    H1378    H        0.25140    0.38900    0.65490    1.000
    C1286    C        0.30429    0.41893    0.64297    1.000
    H1379    H        0.31720    0.39300    0.63880    1.000
    H1380    H        0.31270    0.43720    0.62180    1.000
    C1287    C        0.34240    0.47193    0.67767    1.000
    O275     O        0.37998    0.46442    0.67656    1.000
    O276     O        0.32740    0.50497    0.67206    1.000
    C1288    C        0.26780    0.44390    0.63030    1.000
    Cu93     Cu       0.60684    0.09148    0.68630    1.000
    O277     O        0.60236    0.14951    0.68566    1.000
    C1289    C        0.61182    0.16768    0.72011    1.000
    C1290    C        0.58514    0.19311    0.73896    1.000
    H1381    H        0.56010    0.19810    0.72750    1.000
    C1291    C        0.59547    0.21089    0.77435    1.000
    H1382    H        0.57740    0.22810    0.78710    1.000
    C1292    C        0.63236    0.20362    0.79134    1.000
    H1383    H        0.63940    0.21590    0.81560    1.000
    C1293    C        0.65892    0.17820    0.77249    1.000
    H1384    H        0.68390    0.17330    0.78410    1.000
    C1294    C        0.64926    0.15999    0.73700    1.000
    C1295    C        0.67819    0.13340    0.71529    1.000
    H1385    H        0.70300    0.13150    0.73060    1.000
    H1386    H        0.68460    0.14520    0.68930    1.000
    N93      N        0.66146    0.09272    0.70924    1.000
    H1387    H        0.65860    0.08250    0.73090    1.000
    C1296    C        0.68495    0.06390    0.68494    1.000
    C1297    C        0.72508    0.05232    0.70372    1.000
    H1388    H        0.72300    0.02650    0.71720    1.000
    H1389    H        0.73340    0.07240    0.72330    1.000
    C1298    C        0.75460    0.05010    0.67020    1.000
    H1390    H        0.78200    0.05400    0.67970    1.000
    H1391    H        0.75280    0.02460    0.65600    1.000
    C1299    C        0.74060    0.08540    0.64340    1.000
    H1392    H        0.75170    0.08320    0.61650    1.000
    H1393    H        0.74860    0.11100    0.65490    1.000
    C1300    C        0.69571    0.08107    0.64297    1.000
    H1394    H        0.68280    0.10700    0.63880    1.000
    H1395    H        0.68730    0.06280    0.62180    1.000
    C1301    C        0.65760    0.02807    0.67767    1.000
    O278     O        0.62002    0.03558    0.67656    1.000
    O279     O        0.67260    0.99503    0.67206    1.000
    C1302    C        0.73220    0.05610    0.63030    1.000
    Cu94     Cu       0.10684    0.59148    0.18630    1.000
    O280     O        0.10236    0.64951    0.18566    1.000
    C1303    C        0.11182    0.66768    0.22011    1.000
    C1304    C        0.08514    0.69311    0.23896    1.000
    H1396    H        0.06010    0.69810    0.22750    1.000
    C1305    C        0.09547    0.71089    0.27435    1.000
    H1397    H        0.07740    0.72810    0.28710    1.000
    C1306    C        0.13236    0.70362    0.29134    1.000
    H1398    H        0.13940    0.71590    0.31560    1.000
    C1307    C        0.15892    0.67820    0.27249    1.000
    H1399    H        0.18390    0.67330    0.28410    1.000
    C1308    C        0.14926    0.65999    0.23700    1.000
    C1309    C        0.17819    0.63340    0.21529    1.000
    H1400    H        0.20300    0.63150    0.23060    1.000
    H1401    H        0.18460    0.64520    0.18930    1.000
    N94      N        0.16146    0.59272    0.20924    1.000
    H1402    H        0.15860    0.58250    0.23090    1.000
    C1310    C        0.18495    0.56390    0.18494    1.000
    C1311    C        0.22508    0.55232    0.20372    1.000
    H1403    H        0.22300    0.52650    0.21720    1.000
    H1404    H        0.23340    0.57240    0.22330    1.000
    C1312    C        0.25460    0.55010    0.17020    1.000
    H1405    H        0.28200    0.55400    0.17970    1.000
    H1406    H        0.25280    0.52460    0.15600    1.000
    C1313    C        0.24060    0.58540    0.14340    1.000
    H1407    H        0.25170    0.58320    0.11650    1.000
    H1408    H        0.24860    0.61100    0.15490    1.000
    C1314    C        0.19571    0.58107    0.14297    1.000
    H1409    H        0.18280    0.60700    0.13880    1.000
    H1410    H        0.18730    0.56280    0.12180    1.000
    C1315    C        0.15760    0.52807    0.17767    1.000
    O281     O        0.12002    0.53558    0.17656    1.000
    O282     O        0.17260    0.49503    0.17206    1.000
    C1316    C        0.23220    0.55610    0.13030    1.000
    Cu95     Cu       0.10684    0.40852    0.31370    1.000
    O283     O        0.10236    0.35049    0.31434    1.000
    C1317    C        0.11182    0.33232    0.27989    1.000
    C1318    C        0.08514    0.30689    0.26104    1.000
    H1411    H        0.06010    0.30190    0.27250    1.000
    C1319    C        0.09547    0.28911    0.22565    1.000
    H1412    H        0.07740    0.27190    0.21290    1.000
    C1320    C        0.13236    0.29638    0.20866    1.000
    H1413    H        0.13940    0.28410    0.18440    1.000
    C1321    C        0.15892    0.32180    0.22751    1.000
    H1414    H        0.18390    0.32670    0.21590    1.000
    C1322    C        0.14926    0.34001    0.26300    1.000
    C1323    C        0.17819    0.36660    0.28471    1.000
    H1415    H        0.20300    0.36850    0.26940    1.000
    H1416    H        0.18460    0.35480    0.31070    1.000
    N95      N        0.16146    0.40728    0.29076    1.000
    H1417    H        0.15860    0.41750    0.26910    1.000
    C1324    C        0.18495    0.43610    0.31506    1.000
    C1325    C        0.22508    0.44768    0.29628    1.000
    H1418    H        0.22300    0.47350    0.28280    1.000
    H1419    H        0.23340    0.42760    0.27670    1.000
    C1326    C        0.25460    0.44990    0.32980    1.000
    H1420    H        0.28200    0.44600    0.32030    1.000
    H1421    H        0.25280    0.47540    0.34400    1.000
    C1327    C        0.24060    0.41460    0.35660    1.000
    H1422    H        0.25170    0.41680    0.38350    1.000
    H1423    H        0.24860    0.38900    0.34510    1.000
    C1328    C        0.19571    0.41893    0.35703    1.000
    H1424    H        0.18280    0.39300    0.36120    1.000
    H1425    H        0.18730    0.43720    0.37820    1.000
    C1329    C        0.15760    0.47193    0.32233    1.000
    O284     O        0.12002    0.46442    0.32344    1.000
    O285     O        0.17260    0.50497    0.32794    1.000
    C1330    C        0.23220    0.44390    0.36970    1.000
    Cu96     Cu       0.60684    0.90852    0.81370    1.000
    O286     O        0.60236    0.85049    0.81434    1.000
    C1331    C        0.61182    0.83232    0.77989    1.000
    C1332    C        0.58514    0.80689    0.76104    1.000
    H1426    H        0.56010    0.80190    0.77250    1.000
    C1333    C        0.59547    0.78911    0.72565    1.000
    H1427    H        0.57740    0.77190    0.71290    1.000
    C1334    C        0.63236    0.79638    0.70866    1.000
    H1428    H        0.63940    0.78410    0.68440    1.000
    C1335    C        0.65892    0.82180    0.72751    1.000
    H1429    H        0.68390    0.82670    0.71590    1.000
    C1336    C        0.64926    0.84001    0.76300    1.000
    C1337    C        0.67819    0.86660    0.78471    1.000
    H1430    H        0.70300    0.86850    0.76940    1.000
    H1431    H        0.68460    0.85480    0.81070    1.000
    N96      N        0.66146    0.90728    0.79076    1.000
    H1432    H        0.65860    0.91750    0.76910    1.000
    C1338    C        0.68495    0.93610    0.81506    1.000
    C1339    C        0.72508    0.94768    0.79628    1.000
    H1433    H        0.72300    0.97350    0.78280    1.000
    H1434    H        0.73340    0.92760    0.77670    1.000
    C1340    C        0.75460    0.94990    0.82980    1.000
    H1435    H        0.78200    0.94600    0.82030    1.000
    H1436    H        0.75280    0.97540    0.84400    1.000
    C1341    C        0.74060    0.91460    0.85660    1.000
    H1437    H        0.75170    0.91680    0.88350    1.000
    H1438    H        0.74860    0.88900    0.84510    1.000
    C1342    C        0.69571    0.91893    0.85703    1.000
    H1439    H        0.68280    0.89300    0.86120    1.000
    H1440    H        0.68730    0.93720    0.87820    1.000
    C1343    C        0.65760    0.97193    0.82233    1.000
    O287     O        0.62002    0.96442    0.82344    1.000
    O288     O        0.67260    0.00497    0.82794    1.000
    C1344    C        0.73220    0.94390    0.86970    1.000
