# CIF file generated by openbabel 3.1.0, see https://openbabel.org
data_I
_chemical_name_common 'image0'
_cell_length_a 13.5497
_cell_length_b 10.8567
_cell_length_c 14.6263
_cell_angle_alpha 90
_cell_angle_beta 109.784
_cell_angle_gamma 90
_space_group_name_H-M_alt 'P 1'
_space_group_name_Hall 'P 1'
loop_
    _symmetry_equiv_pos_as_xyz
    x,y,z
loop_
    _atom_site_label
    _atom_site_type_symbol
    _atom_site_fract_x
    _atom_site_fract_y
    _atom_site_fract_z
    _atom_site_occupancy
    Co1      Co       0.40360    0.91509    0.45713    1.000
    Co2      Co       0.50478    0.02144    0.29475    1.000
    O1       O        0.29680    0.03794    0.36946    1.000
    O2       O        0.39120    0.14730    0.29933    1.000
    O3       O        0.37994    0.42022    0.23512    1.000
    O4       O        0.31740    0.28750    0.11241    1.000
    O5       O        0.63307    0.28409    0.15489    1.000
    O6       O        0.62777    0.40562    0.27721    1.000
    O7       O        0.61649    0.16122    0.34814    1.000
    O8       O        0.71499    0.15399    0.50453    1.000
    O9       O        0.53840    0.95638    0.43331    1.000
    C1       C        0.31033    0.12697    0.32111    1.000
    C2       C        0.22212    0.21774    0.28523    1.000
    C3       C        0.13632    0.20416    0.31635    1.000
    H1       H        0.13550    0.13860    0.35700    1.000
    C4       C        0.05165    0.28536    0.28874    1.000
    C5       C        0.05525    0.38263    0.22808    1.000
    H2       H        0.00000    0.43850    0.20870    1.000
    C6       C        0.13960    0.39770    0.19614    1.000
    H3       H        0.14000    0.46340    0.15540    1.000
    C7       C        0.22458    0.31568    0.22406    1.000
    C8       C        0.31566    0.34098    0.18794    1.000
    C9       C        0.96249    0.26643    0.32567    1.000
    C10      C        0.86047    0.30092    0.26957    1.000
    H4       H        0.84840    0.33940    0.21000    1.000
    C11      C        0.77705    0.27824    0.30199    1.000
    C12      C        0.79318    0.21686    0.39036    1.000
    C13      C        0.89514    0.18574    0.44722    1.000
    H5       H        0.90730    0.14800    0.50710    1.000
    C14      C        0.97901    0.21036    0.41574    1.000
    H6       H        0.04670    0.18940    0.45490    1.000
    C15      C        0.66919    0.32407    0.24038    1.000
    C16      C        0.70095    0.17488    0.41692    1.000
    H7       H        0.58520    0.89770    0.44180    1.000
    Co3      Co       0.59640    0.41509    0.04287    1.000
    Co4      Co       0.49522    0.52144    0.20525    1.000
    O10      O        0.70320    0.53794    0.13054    1.000
    O11      O        0.60880    0.64730    0.20067    1.000
    O12      O        0.62006    0.92022    0.26488    1.000
    O13      O        0.68260    0.78750    0.38759    1.000
    O14      O        0.36693    0.78409    0.34511    1.000
    O15      O        0.37223    0.90562    0.22279    1.000
    O16      O        0.38351    0.66122    0.15186    1.000
    O17      O        0.28501    0.65399    0.99547    1.000
    O18      O        0.46160    0.45638    0.06669    1.000
    C17      C        0.68967    0.62697    0.17889    1.000
    C18      C        0.77788    0.71774    0.21477    1.000
    C19      C        0.86368    0.70416    0.18365    1.000
    H8       H        0.86450    0.63860    0.14300    1.000
    C20      C        0.94835    0.78536    0.21126    1.000
    C21      C        0.94475    0.88263    0.27192    1.000
    H9       H        0.00000    0.93850    0.29130    1.000
    C22      C        0.86040    0.89770    0.30386    1.000
    H10      H        0.86000    0.96340    0.34460    1.000
    C23      C        0.77542    0.81568    0.27594    1.000
    C24      C        0.68434    0.84098    0.31206    1.000
    C25      C        0.03751    0.76643    0.17433    1.000
    C26      C        0.13953    0.80092    0.23043    1.000
    H11      H        0.15160    0.83940    0.29000    1.000
    C27      C        0.22295    0.77824    0.19801    1.000
    C28      C        0.20682    0.71686    0.10964    1.000
    C29      C        0.10486    0.68574    0.05278    1.000
    H12      H        0.09270    0.64800    0.99290    1.000
    C30      C        0.02099    0.71036    0.08426    1.000
    H13      H        0.95330    0.68940    0.04510    1.000
    C31      C        0.33081    0.82407    0.25962    1.000
    C32      C        0.29905    0.67488    0.08308    1.000
    H14      H        0.41480    0.39770    0.05820    1.000
    Co5      Co       0.59640    0.08491    0.54287    1.000
    Co6      Co       0.49522    0.97856    0.70525    1.000
    O19      O        0.70320    0.96206    0.63054    1.000
    O20      O        0.60880    0.85270    0.70067    1.000
    O21      O        0.62006    0.57978    0.76488    1.000
    O22      O        0.68260    0.71250    0.88759    1.000
    O23      O        0.36693    0.71591    0.84511    1.000
    O24      O        0.37223    0.59438    0.72279    1.000
    O25      O        0.38351    0.83878    0.65186    1.000
    O26      O        0.28501    0.84601    0.49547    1.000
    O27      O        0.46160    0.04362    0.56669    1.000
    C33      C        0.68967    0.87303    0.67889    1.000
    C34      C        0.77788    0.78226    0.71477    1.000
    C35      C        0.86368    0.79584    0.68365    1.000
    H15      H        0.86450    0.86140    0.64300    1.000
    C36      C        0.94835    0.71464    0.71126    1.000
    C37      C        0.94475    0.61737    0.77192    1.000
    H16      H        0.00000    0.56150    0.79130    1.000
    C38      C        0.86040    0.60230    0.80386    1.000
    H17      H        0.86000    0.53660    0.84460    1.000
    C39      C        0.77542    0.68432    0.77594    1.000
    C40      C        0.68434    0.65902    0.81206    1.000
    C41      C        0.03751    0.73357    0.67433    1.000
    C42      C        0.13953    0.69908    0.73043    1.000
    H18      H        0.15160    0.66060    0.79000    1.000
    C43      C        0.22295    0.72176    0.69801    1.000
    C44      C        0.20682    0.78314    0.60964    1.000
    C45      C        0.10486    0.81426    0.55278    1.000
    H19      H        0.09270    0.85200    0.49290    1.000
    C46      C        0.02099    0.78964    0.58426    1.000
    H20      H        0.95330    0.81060    0.54510    1.000
    C47      C        0.33081    0.67593    0.75962    1.000
    C48      C        0.29905    0.82512    0.58308    1.000
    H21      H        0.41480    0.10230    0.55820    1.000
    Co7      Co       0.40360    0.58491    0.95713    1.000
    Co8      Co       0.50478    0.47856    0.79475    1.000
    O28      O        0.29680    0.46206    0.86946    1.000
    O29      O        0.39120    0.35270    0.79933    1.000
    O30      O        0.37994    0.07978    0.73512    1.000
    O31      O        0.31740    0.21250    0.61241    1.000
    O32      O        0.63307    0.21591    0.65489    1.000
    O33      O        0.62777    0.09438    0.77721    1.000
    O34      O        0.61649    0.33878    0.84814    1.000
    O35      O        0.71499    0.34601    0.00453    1.000
    O36      O        0.53840    0.54362    0.93331    1.000
    C49      C        0.31033    0.37303    0.82111    1.000
    C50      C        0.22212    0.28226    0.78523    1.000
    C51      C        0.13632    0.29584    0.81635    1.000
    H22      H        0.13550    0.36140    0.85700    1.000
    C52      C        0.05165    0.21464    0.78874    1.000
    C53      C        0.05525    0.11737    0.72808    1.000
    H23      H        0.00000    0.06150    0.70870    1.000
    C54      C        0.13960    0.10230    0.69614    1.000
    H24      H        0.14000    0.03660    0.65540    1.000
    C55      C        0.22458    0.18432    0.72406    1.000
    C56      C        0.31566    0.15902    0.68794    1.000
    C57      C        0.96249    0.23357    0.82567    1.000
    C58      C        0.86047    0.19908    0.76957    1.000
    H25      H        0.84840    0.16060    0.71000    1.000
    C59      C        0.77705    0.22176    0.80199    1.000
    C60      C        0.79318    0.28314    0.89036    1.000
    C61      C        0.89514    0.31426    0.94722    1.000
    H26      H        0.90730    0.35200    0.00710    1.000
    C62      C        0.97901    0.28964    0.91574    1.000
    H27      H        0.04670    0.31060    0.95490    1.000
    C63      C        0.66919    0.17593    0.74038    1.000
    C64      C        0.70095    0.32512    0.91692    1.000
    H28      H        0.58520    0.60230    0.94180    1.000
