# CIF file generated by openbabel 3.1.0, see https://openbabel.org
data_I
_chemical_name_common 'image0'
_cell_length_a 11.9286
_cell_length_b 11.9286
_cell_length_c 10.469
_cell_angle_alpha 90
_cell_angle_beta 90
_cell_angle_gamma 120
_space_group_name_H-M_alt 'P 1'
_space_group_name_Hall 'P 1'
loop_
    _symmetry_equiv_pos_as_xyz
    x,y,z
loop_
    _atom_site_label
    _atom_site_type_symbol
    _atom_site_fract_x
    _atom_site_fract_y
    _atom_site_fract_z
    _atom_site_occupancy
    N1       N        0.10644    0.51732    0.22491    1.000
    N2       N        0.15051    0.53182    0.34931    1.000
    C1       C        0.26030    0.53010    0.34510    1.000
    N3       N        0.29002    0.51490    0.22215    1.000
    C2       C        0.19200    0.50870    0.15190    1.000
    H1       H        0.18570    0.49950    0.06360    1.000
    N4       N        0.32790    0.53200    0.44990    1.000
    H2       H        0.29980    0.53440    0.52490    1.000
    H3       H        0.39900    0.53070    0.44140    1.000
    O1       O        0.40170    0.36773    0.29860    1.000
    H4       H        0.45390    0.34220    0.29380    1.000
    Cu1      Cu       0.43765    0.49782    0.15982    1.000
    N5       N        0.48268    0.58912    0.89158    1.000
    N6       N        0.46818    0.61869    0.01598    1.000
    C3       C        0.46990    0.73020    0.01177    1.000
    N7       N        0.48510    0.77512    0.88882    1.000
    C4       C        0.49130    0.68330    0.81857    1.000
    H5       H        0.50050    0.68620    0.73027    1.000
    N8       N        0.46800    0.79590    0.11657    1.000
    H6       H        0.46560    0.76540    0.19157    1.000
    H7       H        0.46930    0.86830    0.10807    1.000
    O2       O        0.63227    0.03397    0.96527    1.000
    H8       H        0.65780    0.11170    0.96047    1.000
    Cu2      Cu       0.50218    0.93983    0.82649    1.000
    N9       N        0.41088    0.89356    0.55824    1.000
    N10      N        0.38131    0.84949    0.68264    1.000
    C5       C        0.26980    0.73970    0.67843    1.000
    N11      N        0.22488    0.70998    0.55548    1.000
    C6       C        0.31670    0.80800    0.48523    1.000
    H9       H        0.31380    0.81430    0.39693    1.000
    N12      N        0.20410    0.67210    0.78323    1.000
    H10      H        0.23460    0.70020    0.85823    1.000
    H11      H        0.13170    0.60100    0.77473    1.000
    O3       O        0.96603    0.59830    0.63193    1.000
    H12      H        0.88830    0.54610    0.62713    1.000
    Cu3      Cu       0.06017    0.56235    0.49315    1.000
    N13      N        0.51732    0.10644    0.77509    1.000
    N14      N        0.53182    0.15051    0.65069    1.000
    C7       C        0.53010    0.26030    0.65490    1.000
    N15      N        0.51490    0.29002    0.77785    1.000
    C8       C        0.50870    0.19200    0.84810    1.000
    H13      H        0.49950    0.18570    0.93640    1.000
    N16      N        0.53200    0.32790    0.55010    1.000
    H14      H        0.53440    0.29980    0.47510    1.000
    H15      H        0.53070    0.39900    0.55860    1.000
    O4       O        0.36773    0.40170    0.70140    1.000
    H16      H        0.34220    0.45390    0.70620    1.000
    Cu4      Cu       0.49782    0.43765    0.84018    1.000
    N17      N        0.58912    0.48268    0.10842    1.000
    N18      N        0.61869    0.46818    0.98402    1.000
    C9       C        0.73020    0.46990    0.98823    1.000
    N19      N        0.77512    0.48510    0.11118    1.000
    C10      C        0.68330    0.49130    0.18143    1.000
    H17      H        0.68620    0.50050    0.26973    1.000
    N20      N        0.79590    0.46800    0.88343    1.000
    H18      H        0.76540    0.46560    0.80843    1.000
    H19      H        0.86830    0.46930    0.89193    1.000
    O5       O        0.03397    0.63227    0.03473    1.000
    H20      H        0.11170    0.65780    0.03953    1.000
    Cu5      Cu       0.93983    0.50218    0.17351    1.000
    N21      N        0.89356    0.41088    0.44176    1.000
    N22      N        0.84949    0.38131    0.31736    1.000
    C11      C        0.73970    0.26980    0.32157    1.000
    N23      N        0.70998    0.22488    0.44452    1.000
    C12      C        0.80800    0.31670    0.51477    1.000
    H21      H        0.81430    0.31380    0.60307    1.000
    N24      N        0.67210    0.20410    0.21677    1.000
    H22      H        0.70020    0.23460    0.14177    1.000
    H23      H        0.60100    0.13170    0.22527    1.000
    O6       O        0.59830    0.96603    0.36807    1.000
    H24      H        0.54610    0.88830    0.37287    1.000
    Cu6      Cu       0.56235    0.06017    0.50685    1.000
