# CIF file generated by openbabel 3.1.0, see https://openbabel.org
data_I
_chemical_name_common 'image0'
_cell_length_a 25.569
_cell_length_b 25.569
_cell_length_c 16.707
_cell_angle_alpha 90
_cell_angle_beta 90
_cell_angle_gamma 90
_space_group_name_H-M_alt 'P 1'
_space_group_name_Hall 'P 1'
loop_
    _symmetry_equiv_pos_as_xyz
    x,y,z
loop_
    _atom_site_label
    _atom_site_type_symbol
    _atom_site_fract_x
    _atom_site_fract_y
    _atom_site_fract_z
    _atom_site_occupancy
    Co1      Co       0.06729    0.66047    0.59964    1.000
    Co2      Co       0.00307    0.56336    0.68829    1.000
    O1       O        0.00310    0.69412    0.65538    1.000
    O2       O        0.95391    0.62630    0.69768    1.000
    O3       O        0.01951    0.58964    0.56701    1.000
    O4       O        0.06935    0.61276    0.70283    1.000
    O5       O        0.99697    0.55084    0.81402    1.000
    O6       O        0.13343    0.61839    0.56721    1.000
    N1       N        0.72045    0.88364    0.85026    1.000
    C1       C        0.84503    0.78199    0.77200    1.000
    C2       C        0.88770    0.69780    0.77700    1.000
    H1       H        0.89500    0.66810    0.80710    1.000
    C3       C        0.92295    0.71241    0.71900    1.000
    C4       C        0.88100    0.79671    0.71530    1.000
    H2       H        0.87920    0.83090    0.69310    1.000
    C5       C        0.80202    0.81733    0.79830    1.000
    C6       C        0.21611    0.54707    0.42810    1.000
    H3       H        0.20220    0.55910    0.37870    1.000
    C7       C        0.92020    0.76247    0.68950    1.000
    H4       H        0.94450    0.77370    0.65180    1.000
    C8       C        0.96366    0.67462    0.68822    1.000
    C9       C        0.99365    0.59582    0.86490    1.000
    H5       H        0.02460    0.61670    0.85880    1.000
    H6       H        0.96360    0.61620    0.85040    1.000
    H7       H        0.99050    0.58480    0.91960    1.000
    C10      C        0.25735    0.51090    0.42840    1.000
    H8       H        0.26690    0.49880    0.36560    1.000
    C11      C        0.72020    0.83220    0.86160    1.000
    H9       H        0.69080    0.81750    0.88810    1.000
    C12      C        0.76000    0.79820    0.83740    1.000
    H10      H        0.75740    0.76180    0.84840    1.000
    C13      C        0.80430    0.87260    0.78240    1.000
    H11      H        0.83340    0.88780    0.75580    1.000
    C14      C        0.76160    0.90340    0.80790    1.000
    H12      H        0.76150    0.93960    0.79500    1.000
    C15      C        0.84950    0.73170    0.80310    1.000
    H13      H        0.82570    0.72050    0.84330    1.000
    C16      C        0.32410    0.45890    0.48760    1.000
    C17      C        0.36250    0.46720    0.42580    1.000
    H14      H        0.35780    0.49460    0.38790    1.000
    C18      C        0.40790    0.43410    0.42130    1.000
    H15      H        0.43320    0.43950    0.38050    1.000
    N2       N        0.41500    0.39270    0.47860    1.000
    C19      C        0.37660    0.38440    0.54040    1.000
    H16      H        0.38130    0.35710    0.57830    1.000
    C20      C        0.33120    0.41750    0.54490    1.000
    H17      H        0.30590    0.41210    0.58570    1.000
    C21      C        0.73530    0.84080    0.89470    1.000
    H18      H        0.71800    0.83430    0.94400    1.000
    C22      C        0.77410    0.80730    0.87060    1.000
    H19      H        0.78230    0.77740    0.90200    1.000
    C23      C        0.78700    0.86000    0.75760    1.000
    H20      H        0.80410    0.86860    0.70880    1.000
    C24      C        0.74720    0.89180    0.78530    1.000
    H21      H        0.73870    0.92190    0.75450    1.000
    C25      C        0.32230    0.45040    0.53450    1.000
    C26      C        0.35620    0.45600    0.59580    1.000
    H22      H        0.35120    0.48320    0.63380    1.000
    C27      C        0.39710    0.42310    0.60320    1.000
    H23      H        0.42090    0.42700    0.64640    1.000
    N3       N        0.40410    0.38440    0.54940    1.000
    C28      C        0.37030    0.37880    0.48800    1.000
    H24      H        0.37520    0.35160    0.45010    1.000
    C29      C        0.32940    0.41170    0.48060    1.000
    H25      H        0.30550    0.40770    0.43740    1.000
    H26      H        0.03560    0.76370    0.44490    1.000
    H27      H        0.00990    0.75810    0.53180    1.000
    H28      H        0.07080    0.77130    0.52330    1.000
    Co3      Co       0.93271    0.33953    0.59964    1.000
    Co4      Co       0.99693    0.43664    0.68829    1.000
    O7       O        0.99690    0.30588    0.65538    1.000
    O8       O        0.04609    0.37370    0.69768    1.000
    O9       O        0.98049    0.41036    0.56701    1.000
    O10      O        0.93065    0.38724    0.70283    1.000
    O11      O        0.00303    0.44916    0.81402    1.000
    O12      O        0.86657    0.38161    0.56721    1.000
    N4       N        0.27955    0.11636    0.85026    1.000
    C30      C        0.15497    0.21801    0.77200    1.000
    C31      C        0.11230    0.30220    0.77700    1.000
    H29      H        0.10500    0.33190    0.80710    1.000
    C32      C        0.07705    0.28759    0.71900    1.000
    C33      C        0.11900    0.20329    0.71530    1.000
    H30      H        0.12080    0.16910    0.69310    1.000
    C34      C        0.19798    0.18267    0.79830    1.000
    C35      C        0.78389    0.45293    0.42810    1.000
    H31      H        0.79780    0.44090    0.37870    1.000
    C36      C        0.07980    0.23753    0.68950    1.000
    H32      H        0.05550    0.22630    0.65180    1.000
    C37      C        0.03634    0.32538    0.68822    1.000
    C38      C        0.00635    0.40418    0.86490    1.000
    H33      H        0.97540    0.38330    0.85880    1.000
    H34      H        0.03640    0.38380    0.85040    1.000
    H35      H        0.00950    0.41520    0.91960    1.000
    C39      C        0.74265    0.48910    0.42840    1.000
    H36      H        0.73310    0.50120    0.36560    1.000
    C40      C        0.27980    0.16780    0.86160    1.000
    H37      H        0.30920    0.18250    0.88810    1.000
    C41      C        0.24000    0.20180    0.83740    1.000
    H38      H        0.24260    0.23820    0.84840    1.000
    C42      C        0.19570    0.12740    0.78240    1.000
    H39      H        0.16660    0.11220    0.75580    1.000
    C43      C        0.23840    0.09660    0.80790    1.000
    H40      H        0.23850    0.06040    0.79500    1.000
    C44      C        0.15050    0.26830    0.80310    1.000
    H41      H        0.17430    0.27950    0.84330    1.000
    C45      C        0.67590    0.54110    0.48760    1.000
    C46      C        0.63750    0.53280    0.42580    1.000
    H42      H        0.64220    0.50540    0.38790    1.000
    C47      C        0.59210    0.56590    0.42130    1.000
    H43      H        0.56680    0.56050    0.38050    1.000
    N5       N        0.58500    0.60730    0.47860    1.000
    C48      C        0.62340    0.61560    0.54040    1.000
    H44      H        0.61870    0.64290    0.57830    1.000
    C49      C        0.66880    0.58250    0.54490    1.000
    H45      H        0.69410    0.58790    0.58570    1.000
    C50      C        0.26470    0.15920    0.89470    1.000
    H46      H        0.28200    0.16570    0.94400    1.000
    C51      C        0.22590    0.19270    0.87060    1.000
    H47      H        0.21770    0.22260    0.90200    1.000
    C52      C        0.21300    0.14000    0.75760    1.000
    H48      H        0.19590    0.13140    0.70880    1.000
    C53      C        0.25280    0.10820    0.78530    1.000
    H49      H        0.26130    0.07810    0.75450    1.000
    C54      C        0.67770    0.54960    0.53450    1.000
    C55      C        0.64380    0.54400    0.59580    1.000
    H50      H        0.64880    0.51680    0.63380    1.000
    C56      C        0.60290    0.57690    0.60320    1.000
    H51      H        0.57910    0.57300    0.64640    1.000
    N6       N        0.59590    0.61560    0.54940    1.000
    C57      C        0.62970    0.62120    0.48800    1.000
    H52      H        0.62480    0.64840    0.45010    1.000
    C58      C        0.67060    0.58830    0.48060    1.000
    H53      H        0.69450    0.59230    0.43740    1.000
    H54      H        0.96440    0.23630    0.44490    1.000
    H55      H        0.99010    0.24190    0.53180    1.000
    H56      H        0.92920    0.22870    0.52330    1.000
    Co5      Co       0.33953    0.06729    0.09964    1.000
    Co6      Co       0.43664    0.00307    0.18829    1.000
    O13      O        0.30588    0.00310    0.15538    1.000
    O14      O        0.37370    0.95391    0.19768    1.000
    O15      O        0.41036    0.01951    0.06701    1.000
    O16      O        0.38724    0.06935    0.20283    1.000
    O17      O        0.44916    0.99697    0.31402    1.000
    O18      O        0.38161    0.13343    0.06721    1.000
    N7       N        0.11636    0.72045    0.35026    1.000
    C59      C        0.21801    0.84503    0.27200    1.000
    C60      C        0.30220    0.88770    0.27700    1.000
    H57      H        0.33190    0.89500    0.30710    1.000
    C61      C        0.28759    0.92295    0.21900    1.000
    C62      C        0.20329    0.88100    0.21530    1.000
    H58      H        0.16910    0.87920    0.19310    1.000
    C63      C        0.18267    0.80202    0.29830    1.000
    C64      C        0.45293    0.21611    0.92810    1.000
    H59      H        0.44090    0.20220    0.87870    1.000
    C65      C        0.23753    0.92020    0.18950    1.000
    H60      H        0.22630    0.94450    0.15180    1.000
    C66      C        0.32538    0.96366    0.18822    1.000
    C67      C        0.40418    0.99365    0.36490    1.000
    H61      H        0.38330    0.02460    0.35880    1.000
    H62      H        0.38380    0.96360    0.35040    1.000
    H63      H        0.41520    0.99050    0.41960    1.000
    C68      C        0.48910    0.25735    0.92840    1.000
    H64      H        0.50120    0.26690    0.86560    1.000
    C69      C        0.16780    0.72020    0.36160    1.000
    H65      H        0.18250    0.69080    0.38810    1.000
    C70      C        0.20180    0.76000    0.33740    1.000
    H66      H        0.23820    0.75740    0.34840    1.000
    C71      C        0.12740    0.80430    0.28240    1.000
    H67      H        0.11220    0.83340    0.25580    1.000
    C72      C        0.09660    0.76160    0.30790    1.000
    H68      H        0.06040    0.76150    0.29500    1.000
    C73      C        0.26830    0.84950    0.30310    1.000
    H69      H        0.27950    0.82570    0.34330    1.000
    C74      C        0.54110    0.32410    0.98760    1.000
    C75      C        0.53280    0.36250    0.92580    1.000
    H70      H        0.50540    0.35780    0.88790    1.000
    C76      C        0.56590    0.40790    0.92130    1.000
    H71      H        0.56050    0.43320    0.88050    1.000
    N8       N        0.60730    0.41500    0.97860    1.000
    C77      C        0.61560    0.37660    0.04040    1.000
    H72      H        0.64290    0.38130    0.07830    1.000
    C78      C        0.58250    0.33120    0.04490    1.000
    H73      H        0.58790    0.30590    0.08570    1.000
    C79      C        0.15920    0.73530    0.39470    1.000
    H74      H        0.16570    0.71800    0.44400    1.000
    C80      C        0.19270    0.77410    0.37060    1.000
    H75      H        0.22260    0.78230    0.40200    1.000
    C81      C        0.14000    0.78700    0.25760    1.000
    H76      H        0.13140    0.80410    0.20880    1.000
    C82      C        0.10820    0.74720    0.28530    1.000
    H77      H        0.07810    0.73870    0.25450    1.000
    C83      C        0.54960    0.32230    0.03450    1.000
    C84      C        0.54400    0.35620    0.09580    1.000
    H78      H        0.51680    0.35120    0.13380    1.000
    C85      C        0.57690    0.39710    0.10320    1.000
    H79      H        0.57300    0.42090    0.14640    1.000
    N9       N        0.61560    0.40410    0.04940    1.000
    C86      C        0.62120    0.37030    0.98800    1.000
    H80      H        0.64840    0.37520    0.95010    1.000
    C87      C        0.58830    0.32940    0.98060    1.000
    H81      H        0.59230    0.30550    0.93740    1.000
    H82      H        0.23630    0.03560    0.94490    1.000
    H83      H        0.24190    0.00990    0.03180    1.000
    H84      H        0.22870    0.07080    0.02330    1.000
    Co7      Co       0.66047    0.93271    0.09964    1.000
    Co8      Co       0.56336    0.99693    0.18829    1.000
    O19      O        0.69412    0.99690    0.15538    1.000
    O20      O        0.62630    0.04609    0.19768    1.000
    O21      O        0.58964    0.98049    0.06701    1.000
    O22      O        0.61276    0.93065    0.20283    1.000
    O23      O        0.55084    0.00303    0.31402    1.000
    O24      O        0.61839    0.86657    0.06721    1.000
    N10      N        0.88364    0.27955    0.35026    1.000
    C88      C        0.78199    0.15497    0.27200    1.000
    C89      C        0.69780    0.11230    0.27700    1.000
    H85      H        0.66810    0.10500    0.30710    1.000
    C90      C        0.71241    0.07705    0.21900    1.000
    C91      C        0.79671    0.11900    0.21530    1.000
    H86      H        0.83090    0.12080    0.19310    1.000
    C92      C        0.81733    0.19798    0.29830    1.000
    C93      C        0.54707    0.78389    0.92810    1.000
    H87      H        0.55910    0.79780    0.87870    1.000
    C94      C        0.76247    0.07980    0.18950    1.000
    H88      H        0.77370    0.05550    0.15180    1.000
    C95      C        0.67462    0.03634    0.18822    1.000
    C96      C        0.59582    0.00635    0.36490    1.000
    H89      H        0.61670    0.97540    0.35880    1.000
    H90      H        0.61620    0.03640    0.35040    1.000
    H91      H        0.58480    0.00950    0.41960    1.000
    C97      C        0.51090    0.74265    0.92840    1.000
    H92      H        0.49880    0.73310    0.86560    1.000
    C98      C        0.83220    0.27980    0.36160    1.000
    H93      H        0.81750    0.30920    0.38810    1.000
    C99      C        0.79820    0.24000    0.33740    1.000
    H94      H        0.76180    0.24260    0.34840    1.000
    C100     C        0.87260    0.19570    0.28240    1.000
    H95      H        0.88780    0.16660    0.25580    1.000
    C101     C        0.90340    0.23840    0.30790    1.000
    H96      H        0.93960    0.23850    0.29500    1.000
    C102     C        0.73170    0.15050    0.30310    1.000
    H97      H        0.72050    0.17430    0.34330    1.000
    C103     C        0.45890    0.67590    0.98760    1.000
    C104     C        0.46720    0.63750    0.92580    1.000
    H98      H        0.49460    0.64220    0.88790    1.000
    C105     C        0.43410    0.59210    0.92130    1.000
    H99      H        0.43950    0.56680    0.88050    1.000
    N11      N        0.39270    0.58500    0.97860    1.000
    C106     C        0.38440    0.62340    0.04040    1.000
    H100     H        0.35710    0.61870    0.07830    1.000
    C107     C        0.41750    0.66880    0.04490    1.000
    H101     H        0.41210    0.69410    0.08570    1.000
    C108     C        0.84080    0.26470    0.39470    1.000
    H102     H        0.83430    0.28200    0.44400    1.000
    C109     C        0.80730    0.22590    0.37060    1.000
    H103     H        0.77740    0.21770    0.40200    1.000
    C110     C        0.86000    0.21300    0.25760    1.000
    H104     H        0.86860    0.19590    0.20880    1.000
    C111     C        0.89180    0.25280    0.28530    1.000
    H105     H        0.92190    0.26130    0.25450    1.000
    C112     C        0.45040    0.67770    0.03450    1.000
    C113     C        0.45600    0.64380    0.09580    1.000
    H106     H        0.48320    0.64880    0.13380    1.000
    C114     C        0.42310    0.60290    0.10320    1.000
    H107     H        0.42700    0.57910    0.14640    1.000
    N12      N        0.38440    0.59590    0.04940    1.000
    C115     C        0.37880    0.62970    0.98800    1.000
    H108     H        0.35160    0.62480    0.95010    1.000
    C116     C        0.41170    0.67060    0.98060    1.000
    H109     H        0.40770    0.69450    0.93740    1.000
    H110     H        0.76370    0.96440    0.94490    1.000
    H111     H        0.75810    0.99010    0.03180    1.000
    H112     H        0.77130    0.92920    0.02330    1.000
    Co9      Co       0.43271    0.16047    0.40036    1.000
    Co10     Co       0.49693    0.06336    0.31171    1.000
    O25      O        0.49690    0.19412    0.34462    1.000
    O26      O        0.54609    0.12630    0.30232    1.000
    O27      O        0.48049    0.08964    0.43299    1.000
    O28      O        0.43065    0.11276    0.29717    1.000
    O29      O        0.50303    0.05084    0.18598    1.000
    O30      O        0.36657    0.11839    0.43279    1.000
    N13      N        0.77955    0.38364    0.14974    1.000
    C117     C        0.65497    0.28199    0.22800    1.000
    C118     C        0.61230    0.19780    0.22300    1.000
    H113     H        0.60500    0.16810    0.19290    1.000
    C119     C        0.57705    0.21241    0.28100    1.000
    C120     C        0.61900    0.29671    0.28470    1.000
    H114     H        0.62080    0.33090    0.30690    1.000
    C121     C        0.69798    0.31733    0.20170    1.000
    C122     C        0.28389    0.04707    0.57190    1.000
    H115     H        0.29780    0.05910    0.62130    1.000
    C123     C        0.57980    0.26247    0.31050    1.000
    H116     H        0.55550    0.27370    0.34820    1.000
    C124     C        0.53634    0.17462    0.31178    1.000
    C125     C        0.50635    0.09582    0.13510    1.000
    H117     H        0.47540    0.11670    0.14120    1.000
    H118     H        0.53640    0.11620    0.14960    1.000
    H119     H        0.50950    0.08480    0.08040    1.000
    C126     C        0.24265    0.01090    0.57160    1.000
    H120     H        0.23310    0.99880    0.63440    1.000
    C127     C        0.77980    0.33220    0.13840    1.000
    H121     H        0.80920    0.31750    0.11190    1.000
    C128     C        0.74000    0.29820    0.16260    1.000
    H122     H        0.74260    0.26180    0.15160    1.000
    C129     C        0.69570    0.37260    0.21760    1.000
    H123     H        0.66660    0.38780    0.24420    1.000
    C130     C        0.73840    0.40340    0.19210    1.000
    H124     H        0.73850    0.43960    0.20500    1.000
    C131     C        0.65050    0.23170    0.19690    1.000
    H125     H        0.67430    0.22050    0.15670    1.000
    C132     C        0.17590    0.95890    0.51240    1.000
    C133     C        0.13750    0.96720    0.57420    1.000
    H126     H        0.14220    0.99460    0.61210    1.000
    C134     C        0.09210    0.93410    0.57870    1.000
    H127     H        0.06680    0.93950    0.61950    1.000
    N14      N        0.08500    0.89270    0.52140    1.000
    C135     C        0.12340    0.88440    0.45960    1.000
    H128     H        0.11870    0.85710    0.42170    1.000
    C136     C        0.16880    0.91750    0.45510    1.000
    H129     H        0.19410    0.91210    0.41430    1.000
    C137     C        0.76470    0.34080    0.10530    1.000
    H130     H        0.78200    0.33430    0.05600    1.000
    C138     C        0.72590    0.30730    0.12940    1.000
    H131     H        0.71770    0.27740    0.09800    1.000
    C139     C        0.71300    0.36000    0.24240    1.000
    H132     H        0.69590    0.36860    0.29120    1.000
    C140     C        0.75280    0.39180    0.21470    1.000
    H133     H        0.76130    0.42190    0.24550    1.000
    C141     C        0.17770    0.95040    0.46550    1.000
    C142     C        0.14380    0.95600    0.40420    1.000
    H134     H        0.14880    0.98320    0.36620    1.000
    C143     C        0.10290    0.92310    0.39680    1.000
    H135     H        0.07910    0.92700    0.35360    1.000
    N15      N        0.09590    0.88440    0.45060    1.000
    C144     C        0.12970    0.87880    0.51200    1.000
    H136     H        0.12480    0.85160    0.54990    1.000
    C145     C        0.17060    0.91170    0.51940    1.000
    H137     H        0.19450    0.90770    0.56260    1.000
    H138     H        0.46440    0.26370    0.55510    1.000
    H139     H        0.49010    0.25810    0.46820    1.000
    H140     H        0.42920    0.27130    0.47670    1.000
    Co11     Co       0.56729    0.83953    0.40036    1.000
    Co12     Co       0.50307    0.93664    0.31171    1.000
    O31      O        0.50310    0.80588    0.34462    1.000
    O32      O        0.45391    0.87370    0.30232    1.000
    O33      O        0.51951    0.91036    0.43299    1.000
    O34      O        0.56935    0.88724    0.29717    1.000
    O35      O        0.49697    0.94916    0.18598    1.000
    O36      O        0.63343    0.88161    0.43279    1.000
    N16      N        0.22045    0.61636    0.14974    1.000
    C146     C        0.34503    0.71801    0.22800    1.000
    C147     C        0.38770    0.80220    0.22300    1.000
    H141     H        0.39500    0.83190    0.19290    1.000
    C148     C        0.42295    0.78759    0.28100    1.000
    C149     C        0.38100    0.70329    0.28470    1.000
    H142     H        0.37920    0.66910    0.30690    1.000
    C150     C        0.30202    0.68267    0.20170    1.000
    C151     C        0.71611    0.95293    0.57190    1.000
    H143     H        0.70220    0.94090    0.62130    1.000
    C152     C        0.42020    0.73753    0.31050    1.000
    H144     H        0.44450    0.72630    0.34820    1.000
    C153     C        0.46366    0.82538    0.31178    1.000
    C154     C        0.49365    0.90418    0.13510    1.000
    H145     H        0.52460    0.88330    0.14120    1.000
    H146     H        0.46360    0.88380    0.14960    1.000
    H147     H        0.49050    0.91520    0.08040    1.000
    C155     C        0.75735    0.98910    0.57160    1.000
    H148     H        0.76690    0.00120    0.63440    1.000
    C156     C        0.22020    0.66780    0.13840    1.000
    H149     H        0.19080    0.68250    0.11190    1.000
    C157     C        0.26000    0.70180    0.16260    1.000
    H150     H        0.25740    0.73820    0.15160    1.000
    C158     C        0.30430    0.62740    0.21760    1.000
    H151     H        0.33340    0.61220    0.24420    1.000
    C159     C        0.26160    0.59660    0.19210    1.000
    H152     H        0.26150    0.56040    0.20500    1.000
    C160     C        0.34950    0.76830    0.19690    1.000
    H153     H        0.32570    0.77950    0.15670    1.000
    C161     C        0.82410    0.04110    0.51240    1.000
    C162     C        0.86250    0.03280    0.57420    1.000
    H154     H        0.85780    0.00540    0.61210    1.000
    C163     C        0.90790    0.06590    0.57870    1.000
    H155     H        0.93320    0.06050    0.61950    1.000
    N17      N        0.91500    0.10730    0.52140    1.000
    C164     C        0.87660    0.11560    0.45960    1.000
    H156     H        0.88130    0.14290    0.42170    1.000
    C165     C        0.83120    0.08250    0.45510    1.000
    H157     H        0.80590    0.08790    0.41430    1.000
    C166     C        0.23530    0.65920    0.10530    1.000
    H158     H        0.21800    0.66570    0.05600    1.000
    C167     C        0.27410    0.69270    0.12940    1.000
    H159     H        0.28230    0.72260    0.09800    1.000
    C168     C        0.28700    0.64000    0.24240    1.000
    H160     H        0.30410    0.63140    0.29120    1.000
    C169     C        0.24720    0.60820    0.21470    1.000
    H161     H        0.23870    0.57810    0.24550    1.000
    C170     C        0.82230    0.04960    0.46550    1.000
    C171     C        0.85620    0.04400    0.40420    1.000
    H162     H        0.85120    0.01680    0.36620    1.000
    C172     C        0.89710    0.07690    0.39680    1.000
    H163     H        0.92090    0.07300    0.35360    1.000
    N18      N        0.90410    0.11560    0.45060    1.000
    C173     C        0.87030    0.12120    0.51200    1.000
    H164     H        0.87520    0.14840    0.54990    1.000
    C174     C        0.82940    0.08830    0.51940    1.000
    H165     H        0.80550    0.09230    0.56260    1.000
    H166     H        0.53560    0.73630    0.55510    1.000
    H167     H        0.50990    0.74190    0.46820    1.000
    H168     H        0.57080    0.72870    0.47670    1.000
    Co13     Co       0.16047    0.56729    0.90036    1.000
    Co14     Co       0.06336    0.50307    0.81171    1.000
    O37      O        0.19412    0.50310    0.84462    1.000
    O38      O        0.12630    0.45391    0.80232    1.000
    O39      O        0.08964    0.51951    0.93299    1.000
    O40      O        0.11276    0.56935    0.79717    1.000
    O41      O        0.05084    0.49697    0.68598    1.000
    O42      O        0.11839    0.63343    0.93279    1.000
    N19      N        0.38364    0.22045    0.64974    1.000
    C175     C        0.28199    0.34503    0.72800    1.000
    C176     C        0.19780    0.38770    0.72300    1.000
    H169     H        0.16810    0.39500    0.69290    1.000
    C177     C        0.21241    0.42295    0.78100    1.000
    C178     C        0.29671    0.38100    0.78470    1.000
    H170     H        0.33090    0.37920    0.80690    1.000
    C179     C        0.31733    0.30202    0.70170    1.000
    C180     C        0.04707    0.71611    0.07190    1.000
    H171     H        0.05910    0.70220    0.12130    1.000
    C181     C        0.26247    0.42020    0.81050    1.000
    H172     H        0.27370    0.44450    0.84820    1.000
    C182     C        0.17462    0.46366    0.81178    1.000
    C183     C        0.09582    0.49365    0.63510    1.000
    H173     H        0.11670    0.52460    0.64120    1.000
    H174     H        0.11620    0.46360    0.64960    1.000
    H175     H        0.08480    0.49050    0.58040    1.000
    C184     C        0.01090    0.75735    0.07160    1.000
    H176     H        0.99880    0.76690    0.13440    1.000
    C185     C        0.33220    0.22020    0.63840    1.000
    H177     H        0.31750    0.19080    0.61190    1.000
    C186     C        0.29820    0.26000    0.66260    1.000
    H178     H        0.26180    0.25740    0.65160    1.000
    C187     C        0.37260    0.30430    0.71760    1.000
    H179     H        0.38780    0.33340    0.74420    1.000
    C188     C        0.40340    0.26160    0.69210    1.000
    H180     H        0.43960    0.26150    0.70500    1.000
    C189     C        0.23170    0.34950    0.69690    1.000
    H181     H        0.22050    0.32570    0.65670    1.000
    C190     C        0.95890    0.82410    0.01240    1.000
    C191     C        0.96720    0.86250    0.07420    1.000
    H182     H        0.99460    0.85780    0.11210    1.000
    C192     C        0.93410    0.90790    0.07870    1.000
    H183     H        0.93950    0.93320    0.11950    1.000
    N20      N        0.89270    0.91500    0.02140    1.000
    C193     C        0.88440    0.87660    0.95960    1.000
    H184     H        0.85710    0.88130    0.92170    1.000
    C194     C        0.91750    0.83120    0.95510    1.000
    H185     H        0.91210    0.80590    0.91430    1.000
    C195     C        0.34080    0.23530    0.60530    1.000
    H186     H        0.33430    0.21800    0.55600    1.000
    C196     C        0.30730    0.27410    0.62940    1.000
    H187     H        0.27740    0.28230    0.59800    1.000
    C197     C        0.36000    0.28700    0.74240    1.000
    H188     H        0.36860    0.30410    0.79120    1.000
    C198     C        0.39180    0.24720    0.71470    1.000
    H189     H        0.42190    0.23870    0.74550    1.000
    C199     C        0.95040    0.82230    0.96550    1.000
    C200     C        0.95600    0.85620    0.90420    1.000
    H190     H        0.98320    0.85120    0.86620    1.000
    C201     C        0.92310    0.89710    0.89680    1.000
    H191     H        0.92700    0.92090    0.85360    1.000
    N21      N        0.88440    0.90410    0.95060    1.000
    C202     C        0.87880    0.87030    0.01200    1.000
    H192     H        0.85160    0.87520    0.04990    1.000
    C203     C        0.91170    0.82940    0.01940    1.000
    H193     H        0.90770    0.80550    0.06260    1.000
    H194     H        0.26370    0.53560    0.05510    1.000
    H195     H        0.25810    0.50990    0.96820    1.000
    H196     H        0.27130    0.57080    0.97670    1.000
    Co15     Co       0.83953    0.43271    0.90036    1.000
    Co16     Co       0.93664    0.49693    0.81171    1.000
    O43      O        0.80588    0.49690    0.84462    1.000
    O44      O        0.87370    0.54609    0.80232    1.000
    O45      O        0.91036    0.48049    0.93299    1.000
    O46      O        0.88724    0.43065    0.79717    1.000
    O47      O        0.94916    0.50303    0.68598    1.000
    O48      O        0.88161    0.36657    0.93279    1.000
    N22      N        0.61636    0.77955    0.64974    1.000
    C204     C        0.71801    0.65497    0.72800    1.000
    C205     C        0.80220    0.61230    0.72300    1.000
    H197     H        0.83190    0.60500    0.69290    1.000
    C206     C        0.78759    0.57705    0.78100    1.000
    C207     C        0.70329    0.61900    0.78470    1.000
    H198     H        0.66910    0.62080    0.80690    1.000
    C208     C        0.68267    0.69798    0.70170    1.000
    C209     C        0.95293    0.28389    0.07190    1.000
    H199     H        0.94090    0.29780    0.12130    1.000
    C210     C        0.73753    0.57980    0.81050    1.000
    H200     H        0.72630    0.55550    0.84820    1.000
    C211     C        0.82538    0.53634    0.81178    1.000
    C212     C        0.90418    0.50635    0.63510    1.000
    H201     H        0.88330    0.47540    0.64120    1.000
    H202     H        0.88380    0.53640    0.64960    1.000
    H203     H        0.91520    0.50950    0.58040    1.000
    C213     C        0.98910    0.24265    0.07160    1.000
    H204     H        0.00120    0.23310    0.13440    1.000
    C214     C        0.66780    0.77980    0.63840    1.000
    H205     H        0.68250    0.80920    0.61190    1.000
    C215     C        0.70180    0.74000    0.66260    1.000
    H206     H        0.73820    0.74260    0.65160    1.000
    C216     C        0.62740    0.69570    0.71760    1.000
    H207     H        0.61220    0.66660    0.74420    1.000
    C217     C        0.59660    0.73840    0.69210    1.000
    H208     H        0.56040    0.73850    0.70500    1.000
    C218     C        0.76830    0.65050    0.69690    1.000
    H209     H        0.77950    0.67430    0.65670    1.000
    C219     C        0.04110    0.17590    0.01240    1.000
    C220     C        0.03280    0.13750    0.07420    1.000
    H210     H        0.00540    0.14220    0.11210    1.000
    C221     C        0.06590    0.09210    0.07870    1.000
    H211     H        0.06050    0.06680    0.11950    1.000
    N23      N        0.10730    0.08500    0.02140    1.000
    C222     C        0.11560    0.12340    0.95960    1.000
    H212     H        0.14290    0.11870    0.92170    1.000
    C223     C        0.08250    0.16880    0.95510    1.000
    H213     H        0.08790    0.19410    0.91430    1.000
    C224     C        0.65920    0.76470    0.60530    1.000
    H214     H        0.66570    0.78200    0.55600    1.000
    C225     C        0.69270    0.72590    0.62940    1.000
    H215     H        0.72260    0.71770    0.59800    1.000
    C226     C        0.64000    0.71300    0.74240    1.000
    H216     H        0.63140    0.69590    0.79120    1.000
    C227     C        0.60820    0.75280    0.71470    1.000
    H217     H        0.57810    0.76130    0.74550    1.000
    C228     C        0.04960    0.17770    0.96550    1.000
    C229     C        0.04400    0.14380    0.90420    1.000
    H218     H        0.01680    0.14880    0.86620    1.000
    C230     C        0.07690    0.10290    0.89680    1.000
    H219     H        0.07300    0.07910    0.85360    1.000
    N24      N        0.11560    0.09590    0.95060    1.000
    C231     C        0.12120    0.12970    0.01200    1.000
    H220     H        0.14840    0.12480    0.04990    1.000
    C232     C        0.08830    0.17060    0.01940    1.000
    H221     H        0.09230    0.19450    0.06260    1.000
    H222     H        0.73630    0.46440    0.05510    1.000
    H223     H        0.74190    0.49010    0.96820    1.000
    H224     H        0.72870    0.42920    0.97670    1.000
    Co17     Co       0.93271    0.33953    0.40036    1.000
    Co18     Co       0.99693    0.43664    0.31171    1.000
    O49      O        0.99690    0.30588    0.34462    1.000
    O50      O        0.04609    0.37370    0.30232    1.000
    O51      O        0.98049    0.41036    0.43299    1.000
    O52      O        0.93065    0.38724    0.29717    1.000
    O53      O        0.00303    0.44916    0.18598    1.000
    O54      O        0.86657    0.38161    0.43279    1.000
    N25      N        0.27955    0.11636    0.14974    1.000
    C233     C        0.15497    0.21801    0.22800    1.000
    C234     C        0.11230    0.30220    0.22300    1.000
    H225     H        0.10500    0.33190    0.19290    1.000
    C235     C        0.07705    0.28759    0.28100    1.000
    C236     C        0.11900    0.20329    0.28470    1.000
    H226     H        0.12080    0.16910    0.30690    1.000
    C237     C        0.19798    0.18267    0.20170    1.000
    C238     C        0.78389    0.45293    0.57190    1.000
    H227     H        0.79780    0.44090    0.62130    1.000
    C239     C        0.07980    0.23753    0.31050    1.000
    H228     H        0.05550    0.22630    0.34820    1.000
    C240     C        0.03634    0.32538    0.31178    1.000
    C241     C        0.00635    0.40418    0.13510    1.000
    H229     H        0.97540    0.38330    0.14120    1.000
    H230     H        0.03640    0.38380    0.14960    1.000
    H231     H        0.00950    0.41520    0.08040    1.000
    C242     C        0.74265    0.48910    0.57160    1.000
    H232     H        0.73310    0.50120    0.63440    1.000
    C243     C        0.27980    0.16780    0.13840    1.000
    H233     H        0.30920    0.18250    0.11190    1.000
    C244     C        0.24000    0.20180    0.16260    1.000
    H234     H        0.24260    0.23820    0.15160    1.000
    C245     C        0.19570    0.12740    0.21760    1.000
    H235     H        0.16660    0.11220    0.24420    1.000
    C246     C        0.23840    0.09660    0.19210    1.000
    H236     H        0.23850    0.06040    0.20500    1.000
    C247     C        0.15050    0.26830    0.19690    1.000
    H237     H        0.17430    0.27950    0.15670    1.000
    C248     C        0.67590    0.54110    0.51240    1.000
    C249     C        0.63750    0.53280    0.57420    1.000
    H238     H        0.64220    0.50540    0.61210    1.000
    C250     C        0.59210    0.56590    0.57870    1.000
    H239     H        0.56680    0.56050    0.61950    1.000
    N26      N        0.58500    0.60730    0.52140    1.000
    C251     C        0.62340    0.61560    0.45960    1.000
    H240     H        0.61870    0.64290    0.42170    1.000
    C252     C        0.66880    0.58250    0.45510    1.000
    H241     H        0.69410    0.58790    0.41430    1.000
    C253     C        0.26470    0.15920    0.10530    1.000
    H242     H        0.28200    0.16570    0.05600    1.000
    C254     C        0.22590    0.19270    0.12940    1.000
    H243     H        0.21770    0.22260    0.09800    1.000
    C255     C        0.21300    0.14000    0.24240    1.000
    H244     H        0.19590    0.13140    0.29120    1.000
    C256     C        0.25280    0.10820    0.21470    1.000
    H245     H        0.26130    0.07810    0.24550    1.000
    C257     C        0.67770    0.54960    0.46550    1.000
    C258     C        0.64380    0.54400    0.40420    1.000
    H246     H        0.64880    0.51680    0.36620    1.000
    C259     C        0.60290    0.57690    0.39680    1.000
    H247     H        0.57910    0.57300    0.35360    1.000
    N27      N        0.59590    0.61560    0.45060    1.000
    C260     C        0.62970    0.62120    0.51200    1.000
    H248     H        0.62480    0.64840    0.54990    1.000
    C261     C        0.67060    0.58830    0.51940    1.000
    H249     H        0.69450    0.59230    0.56260    1.000
    H250     H        0.96440    0.23630    0.55510    1.000
    H251     H        0.99010    0.24190    0.46820    1.000
    H252     H        0.92920    0.22870    0.47670    1.000
    Co19     Co       0.06729    0.66047    0.40036    1.000
    Co20     Co       0.00307    0.56336    0.31171    1.000
    O55      O        0.00310    0.69412    0.34462    1.000
    O56      O        0.95391    0.62630    0.30232    1.000
    O57      O        0.01951    0.58964    0.43299    1.000
    O58      O        0.06935    0.61276    0.29717    1.000
    O59      O        0.99697    0.55084    0.18598    1.000
    O60      O        0.13343    0.61839    0.43279    1.000
    N28      N        0.72045    0.88364    0.14974    1.000
    C262     C        0.84503    0.78199    0.22800    1.000
    C263     C        0.88770    0.69780    0.22300    1.000
    H253     H        0.89500    0.66810    0.19290    1.000
    C264     C        0.92295    0.71241    0.28100    1.000
    C265     C        0.88100    0.79671    0.28470    1.000
    H254     H        0.87920    0.83090    0.30690    1.000
    C266     C        0.80202    0.81733    0.20170    1.000
    C267     C        0.21611    0.54707    0.57190    1.000
    H255     H        0.20220    0.55910    0.62130    1.000
    C268     C        0.92020    0.76247    0.31050    1.000
    H256     H        0.94450    0.77370    0.34820    1.000
    C269     C        0.96366    0.67462    0.31178    1.000
    C270     C        0.99365    0.59582    0.13510    1.000
    H257     H        0.02460    0.61670    0.14120    1.000
    H258     H        0.96360    0.61620    0.14960    1.000
    H259     H        0.99050    0.58480    0.08040    1.000
    C271     C        0.25735    0.51090    0.57160    1.000
    H260     H        0.26690    0.49880    0.63440    1.000
    C272     C        0.72020    0.83220    0.13840    1.000
    H261     H        0.69080    0.81750    0.11190    1.000
    C273     C        0.76000    0.79820    0.16260    1.000
    H262     H        0.75740    0.76180    0.15160    1.000
    C274     C        0.80430    0.87260    0.21760    1.000
    H263     H        0.83340    0.88780    0.24420    1.000
    C275     C        0.76160    0.90340    0.19210    1.000
    H264     H        0.76150    0.93960    0.20500    1.000
    C276     C        0.84950    0.73170    0.19690    1.000
    H265     H        0.82570    0.72050    0.15670    1.000
    C277     C        0.32410    0.45890    0.51240    1.000
    C278     C        0.36250    0.46720    0.57420    1.000
    H266     H        0.35780    0.49460    0.61210    1.000
    C279     C        0.40790    0.43410    0.57870    1.000
    H267     H        0.43320    0.43950    0.61950    1.000
    N29      N        0.41500    0.39270    0.52140    1.000
    C280     C        0.37660    0.38440    0.45960    1.000
    H268     H        0.38130    0.35710    0.42170    1.000
    C281     C        0.33120    0.41750    0.45510    1.000
    H269     H        0.30590    0.41210    0.41430    1.000
    C282     C        0.73530    0.84080    0.10530    1.000
    H270     H        0.71800    0.83430    0.05600    1.000
    C283     C        0.77410    0.80730    0.12940    1.000
    H271     H        0.78230    0.77740    0.09800    1.000
    C284     C        0.78700    0.86000    0.24240    1.000
    H272     H        0.80410    0.86860    0.29120    1.000
    C285     C        0.74720    0.89180    0.21470    1.000
    H273     H        0.73870    0.92190    0.24550    1.000
    C286     C        0.32230    0.45040    0.46550    1.000
    C287     C        0.35620    0.45600    0.40420    1.000
    H274     H        0.35120    0.48320    0.36620    1.000
    C288     C        0.39710    0.42310    0.39680    1.000
    H275     H        0.42090    0.42700    0.35360    1.000
    N30      N        0.40410    0.38440    0.45060    1.000
    C289     C        0.37030    0.37880    0.51200    1.000
    H276     H        0.37520    0.35160    0.54990    1.000
    C290     C        0.32940    0.41170    0.51940    1.000
    H277     H        0.30550    0.40770    0.56260    1.000
    H278     H        0.03560    0.76370    0.55510    1.000
    H279     H        0.00990    0.75810    0.46820    1.000
    H280     H        0.07080    0.77130    0.47670    1.000
    Co21     Co       0.66047    0.93271    0.90036    1.000
    Co22     Co       0.56336    0.99693    0.81171    1.000
    O61      O        0.69412    0.99690    0.84462    1.000
    O62      O        0.62630    0.04609    0.80232    1.000
    O63      O        0.58964    0.98049    0.93299    1.000
    O64      O        0.61276    0.93065    0.79717    1.000
    O65      O        0.55084    0.00303    0.68598    1.000
    O66      O        0.61839    0.86657    0.93279    1.000
    N31      N        0.88364    0.27955    0.64974    1.000
    C291     C        0.78199    0.15497    0.72800    1.000
    C292     C        0.69780    0.11230    0.72300    1.000
    H281     H        0.66810    0.10500    0.69290    1.000
    C293     C        0.71241    0.07705    0.78100    1.000
    C294     C        0.79671    0.11900    0.78470    1.000
    H282     H        0.83090    0.12080    0.80690    1.000
    C295     C        0.81733    0.19798    0.70170    1.000
    C296     C        0.54707    0.78389    0.07190    1.000
    H283     H        0.55910    0.79780    0.12130    1.000
    C297     C        0.76247    0.07980    0.81050    1.000
    H284     H        0.77370    0.05550    0.84820    1.000
    C298     C        0.67462    0.03634    0.81178    1.000
    C299     C        0.59582    0.00635    0.63510    1.000
    H285     H        0.61670    0.97540    0.64120    1.000
    H286     H        0.61620    0.03640    0.64960    1.000
    H287     H        0.58480    0.00950    0.58040    1.000
    C300     C        0.51090    0.74265    0.07160    1.000
    H288     H        0.49880    0.73310    0.13440    1.000
    C301     C        0.83220    0.27980    0.63840    1.000
    H289     H        0.81750    0.30920    0.61190    1.000
    C302     C        0.79820    0.24000    0.66260    1.000
    H290     H        0.76180    0.24260    0.65160    1.000
    C303     C        0.87260    0.19570    0.71760    1.000
    H291     H        0.88780    0.16660    0.74420    1.000
    C304     C        0.90340    0.23840    0.69210    1.000
    H292     H        0.93960    0.23850    0.70500    1.000
    C305     C        0.73170    0.15050    0.69690    1.000
    H293     H        0.72050    0.17430    0.65670    1.000
    C306     C        0.45890    0.67590    0.01240    1.000
    C307     C        0.46720    0.63750    0.07420    1.000
    H294     H        0.49460    0.64220    0.11210    1.000
    C308     C        0.43410    0.59210    0.07870    1.000
    H295     H        0.43950    0.56680    0.11950    1.000
    N32      N        0.39270    0.58500    0.02140    1.000
    C309     C        0.38440    0.62340    0.95960    1.000
    H296     H        0.35710    0.61870    0.92170    1.000
    C310     C        0.41750    0.66880    0.95510    1.000
    H297     H        0.41210    0.69410    0.91430    1.000
    C311     C        0.84080    0.26470    0.60530    1.000
    H298     H        0.83430    0.28200    0.55600    1.000
    C312     C        0.80730    0.22590    0.62940    1.000
    H299     H        0.77740    0.21770    0.59800    1.000
    C313     C        0.86000    0.21300    0.74240    1.000
    H300     H        0.86860    0.19590    0.79120    1.000
    C314     C        0.89180    0.25280    0.71470    1.000
    H301     H        0.92190    0.26130    0.74550    1.000
    C315     C        0.45040    0.67770    0.96550    1.000
    C316     C        0.45600    0.64380    0.90420    1.000
    H302     H        0.48320    0.64880    0.86620    1.000
    C317     C        0.42310    0.60290    0.89680    1.000
    H303     H        0.42700    0.57910    0.85360    1.000
    N33      N        0.38440    0.59590    0.95060    1.000
    C318     C        0.37880    0.62970    0.01200    1.000
    H304     H        0.35160    0.62480    0.04990    1.000
    C319     C        0.41170    0.67060    0.01940    1.000
    H305     H        0.40770    0.69450    0.06260    1.000
    H306     H        0.76370    0.96440    0.05510    1.000
    H307     H        0.75810    0.99010    0.96820    1.000
    H308     H        0.77130    0.92920    0.97670    1.000
    Co23     Co       0.33953    0.06729    0.90036    1.000
    Co24     Co       0.43664    0.00307    0.81171    1.000
    O67      O        0.30588    0.00310    0.84462    1.000
    O68      O        0.37370    0.95391    0.80232    1.000
    O69      O        0.41036    0.01951    0.93299    1.000
    O70      O        0.38724    0.06935    0.79717    1.000
    O71      O        0.44916    0.99697    0.68598    1.000
    O72      O        0.38161    0.13343    0.93279    1.000
    N34      N        0.11636    0.72045    0.64974    1.000
    C320     C        0.21801    0.84503    0.72800    1.000
    C321     C        0.30220    0.88770    0.72300    1.000
    H309     H        0.33190    0.89500    0.69290    1.000
    C322     C        0.28759    0.92295    0.78100    1.000
    C323     C        0.20329    0.88100    0.78470    1.000
    H310     H        0.16910    0.87920    0.80690    1.000
    C324     C        0.18267    0.80202    0.70170    1.000
    C325     C        0.45293    0.21611    0.07190    1.000
    H311     H        0.44090    0.20220    0.12130    1.000
    C326     C        0.23753    0.92020    0.81050    1.000
    H312     H        0.22630    0.94450    0.84820    1.000
    C327     C        0.32538    0.96366    0.81178    1.000
    C328     C        0.40418    0.99365    0.63510    1.000
    H313     H        0.38330    0.02460    0.64120    1.000
    H314     H        0.38380    0.96360    0.64960    1.000
    H315     H        0.41520    0.99050    0.58040    1.000
    C329     C        0.48910    0.25735    0.07160    1.000
    H316     H        0.50120    0.26690    0.13440    1.000
    C330     C        0.16780    0.72020    0.63840    1.000
    H317     H        0.18250    0.69080    0.61190    1.000
    C331     C        0.20180    0.76000    0.66260    1.000
    H318     H        0.23820    0.75740    0.65160    1.000
    C332     C        0.12740    0.80430    0.71760    1.000
    H319     H        0.11220    0.83340    0.74420    1.000
    C333     C        0.09660    0.76160    0.69210    1.000
    H320     H        0.06040    0.76150    0.70500    1.000
    C334     C        0.26830    0.84950    0.69690    1.000
    H321     H        0.27950    0.82570    0.65670    1.000
    C335     C        0.54110    0.32410    0.01240    1.000
    C336     C        0.53280    0.36250    0.07420    1.000
    H322     H        0.50540    0.35780    0.11210    1.000
    C337     C        0.56590    0.40790    0.07870    1.000
    H323     H        0.56050    0.43320    0.11950    1.000
    N35      N        0.60730    0.41500    0.02140    1.000
    C338     C        0.61560    0.37660    0.95960    1.000
    H324     H        0.64290    0.38130    0.92170    1.000
    C339     C        0.58250    0.33120    0.95510    1.000
    H325     H        0.58790    0.30590    0.91430    1.000
    C340     C        0.15920    0.73530    0.60530    1.000
    H326     H        0.16570    0.71800    0.55600    1.000
    C341     C        0.19270    0.77410    0.62940    1.000
    H327     H        0.22260    0.78230    0.59800    1.000
    C342     C        0.14000    0.78700    0.74240    1.000
    H328     H        0.13140    0.80410    0.79120    1.000
    C343     C        0.10820    0.74720    0.71470    1.000
    H329     H        0.07810    0.73870    0.74550    1.000
    C344     C        0.54960    0.32230    0.96550    1.000
    C345     C        0.54400    0.35620    0.90420    1.000
    H330     H        0.51680    0.35120    0.86620    1.000
    C346     C        0.57690    0.39710    0.89680    1.000
    H331     H        0.57300    0.42090    0.85360    1.000
    N36      N        0.61560    0.40410    0.95060    1.000
    C347     C        0.62120    0.37030    0.01200    1.000
    H332     H        0.64840    0.37520    0.04990    1.000
    C348     C        0.58830    0.32940    0.01940    1.000
    H333     H        0.59230    0.30550    0.06260    1.000
    H334     H        0.23630    0.03560    0.05510    1.000
    H335     H        0.24190    0.00990    0.96820    1.000
    H336     H        0.22870    0.07080    0.97670    1.000
    Co25     Co       0.56729    0.83953    0.59964    1.000
    Co26     Co       0.50307    0.93664    0.68829    1.000
    O73      O        0.50310    0.80588    0.65538    1.000
    O74      O        0.45391    0.87370    0.69768    1.000
    O75      O        0.51951    0.91036    0.56701    1.000
    O76      O        0.56935    0.88724    0.70283    1.000
    O77      O        0.49697    0.94916    0.81402    1.000
    O78      O        0.63343    0.88161    0.56721    1.000
    N37      N        0.22045    0.61636    0.85026    1.000
    C349     C        0.34503    0.71801    0.77200    1.000
    C350     C        0.38770    0.80220    0.77700    1.000
    H337     H        0.39500    0.83190    0.80710    1.000
    C351     C        0.42295    0.78759    0.71900    1.000
    C352     C        0.38100    0.70329    0.71530    1.000
    H338     H        0.37920    0.66910    0.69310    1.000
    C353     C        0.30202    0.68267    0.79830    1.000
    C354     C        0.71611    0.95293    0.42810    1.000
    H339     H        0.70220    0.94090    0.37870    1.000
    C355     C        0.42020    0.73753    0.68950    1.000
    H340     H        0.44450    0.72630    0.65180    1.000
    C356     C        0.46366    0.82538    0.68822    1.000
    C357     C        0.49365    0.90418    0.86490    1.000
    H341     H        0.52460    0.88330    0.85880    1.000
    H342     H        0.46360    0.88380    0.85040    1.000
    H343     H        0.49050    0.91520    0.91960    1.000
    C358     C        0.75735    0.98910    0.42840    1.000
    H344     H        0.76690    0.00120    0.36560    1.000
    C359     C        0.22020    0.66780    0.86160    1.000
    H345     H        0.19080    0.68250    0.88810    1.000
    C360     C        0.26000    0.70180    0.83740    1.000
    H346     H        0.25740    0.73820    0.84840    1.000
    C361     C        0.30430    0.62740    0.78240    1.000
    H347     H        0.33340    0.61220    0.75580    1.000
    C362     C        0.26160    0.59660    0.80790    1.000
    H348     H        0.26150    0.56040    0.79500    1.000
    C363     C        0.34950    0.76830    0.80310    1.000
    H349     H        0.32570    0.77950    0.84330    1.000
    C364     C        0.82410    0.04110    0.48760    1.000
    C365     C        0.86250    0.03280    0.42580    1.000
    H350     H        0.85780    0.00540    0.38790    1.000
    C366     C        0.90790    0.06590    0.42130    1.000
    H351     H        0.93320    0.06050    0.38050    1.000
    N38      N        0.91500    0.10730    0.47860    1.000
    C367     C        0.87660    0.11560    0.54040    1.000
    H352     H        0.88130    0.14290    0.57830    1.000
    C368     C        0.83120    0.08250    0.54490    1.000
    H353     H        0.80590    0.08790    0.58570    1.000
    C369     C        0.23530    0.65920    0.89470    1.000
    H354     H        0.21800    0.66570    0.94400    1.000
    C370     C        0.27410    0.69270    0.87060    1.000
    H355     H        0.28230    0.72260    0.90200    1.000
    C371     C        0.28700    0.64000    0.75760    1.000
    H356     H        0.30410    0.63140    0.70880    1.000
    C372     C        0.24720    0.60820    0.78530    1.000
    H357     H        0.23870    0.57810    0.75450    1.000
    C373     C        0.82230    0.04960    0.53450    1.000
    C374     C        0.85620    0.04400    0.59580    1.000
    H358     H        0.85120    0.01680    0.63380    1.000
    C375     C        0.89710    0.07690    0.60320    1.000
    H359     H        0.92090    0.07300    0.64640    1.000
    N39      N        0.90410    0.11560    0.54940    1.000
    C376     C        0.87030    0.12120    0.48800    1.000
    H360     H        0.87520    0.14840    0.45010    1.000
    C377     C        0.82940    0.08830    0.48060    1.000
    H361     H        0.80550    0.09230    0.43740    1.000
    H362     H        0.53560    0.73630    0.44490    1.000
    H363     H        0.50990    0.74190    0.53180    1.000
    H364     H        0.57080    0.72870    0.52330    1.000
    Co27     Co       0.43271    0.16047    0.59964    1.000
    Co28     Co       0.49693    0.06336    0.68829    1.000
    O79      O        0.49690    0.19412    0.65538    1.000
    O80      O        0.54609    0.12630    0.69768    1.000
    O81      O        0.48049    0.08964    0.56701    1.000
    O82      O        0.43065    0.11276    0.70283    1.000
    O83      O        0.50303    0.05084    0.81402    1.000
    O84      O        0.36657    0.11839    0.56721    1.000
    N40      N        0.77955    0.38364    0.85026    1.000
    C378     C        0.65497    0.28199    0.77200    1.000
    C379     C        0.61230    0.19780    0.77700    1.000
    H365     H        0.60500    0.16810    0.80710    1.000
    C380     C        0.57705    0.21241    0.71900    1.000
    C381     C        0.61900    0.29671    0.71530    1.000
    H366     H        0.62080    0.33090    0.69310    1.000
    C382     C        0.69798    0.31733    0.79830    1.000
    C383     C        0.28389    0.04707    0.42810    1.000
    H367     H        0.29780    0.05910    0.37870    1.000
    C384     C        0.57980    0.26247    0.68950    1.000
    H368     H        0.55550    0.27370    0.65180    1.000
    C385     C        0.53634    0.17462    0.68822    1.000
    C386     C        0.50635    0.09582    0.86490    1.000
    H369     H        0.47540    0.11670    0.85880    1.000
    H370     H        0.53640    0.11620    0.85040    1.000
    H371     H        0.50950    0.08480    0.91960    1.000
    C387     C        0.24265    0.01090    0.42840    1.000
    H372     H        0.23310    0.99880    0.36560    1.000
    C388     C        0.77980    0.33220    0.86160    1.000
    H373     H        0.80920    0.31750    0.88810    1.000
    C389     C        0.74000    0.29820    0.83740    1.000
    H374     H        0.74260    0.26180    0.84840    1.000
    C390     C        0.69570    0.37260    0.78240    1.000
    H375     H        0.66660    0.38780    0.75580    1.000
    C391     C        0.73840    0.40340    0.80790    1.000
    H376     H        0.73850    0.43960    0.79500    1.000
    C392     C        0.65050    0.23170    0.80310    1.000
    H377     H        0.67430    0.22050    0.84330    1.000
    C393     C        0.17590    0.95890    0.48760    1.000
    C394     C        0.13750    0.96720    0.42580    1.000
    H378     H        0.14220    0.99460    0.38790    1.000
    C395     C        0.09210    0.93410    0.42130    1.000
    H379     H        0.06680    0.93950    0.38050    1.000
    N41      N        0.08500    0.89270    0.47860    1.000
    C396     C        0.12340    0.88440    0.54040    1.000
    H380     H        0.11870    0.85710    0.57830    1.000
    C397     C        0.16880    0.91750    0.54490    1.000
    H381     H        0.19410    0.91210    0.58570    1.000
    C398     C        0.76470    0.34080    0.89470    1.000
    H382     H        0.78200    0.33430    0.94400    1.000
    C399     C        0.72590    0.30730    0.87060    1.000
    H383     H        0.71770    0.27740    0.90200    1.000
    C400     C        0.71300    0.36000    0.75760    1.000
    H384     H        0.69590    0.36860    0.70880    1.000
    C401     C        0.75280    0.39180    0.78530    1.000
    H385     H        0.76130    0.42190    0.75450    1.000
    C402     C        0.17770    0.95040    0.53450    1.000
    C403     C        0.14380    0.95600    0.59580    1.000
    H386     H        0.14880    0.98320    0.63380    1.000
    C404     C        0.10290    0.92310    0.60320    1.000
    H387     H        0.07910    0.92700    0.64640    1.000
    N42      N        0.09590    0.88440    0.54940    1.000
    C405     C        0.12970    0.87880    0.48800    1.000
    H388     H        0.12480    0.85160    0.45010    1.000
    C406     C        0.17060    0.91170    0.48060    1.000
    H389     H        0.19450    0.90770    0.43740    1.000
    H390     H        0.46440    0.26370    0.44490    1.000
    H391     H        0.49010    0.25810    0.53180    1.000
    H392     H        0.42920    0.27130    0.52330    1.000
    Co29     Co       0.83953    0.43271    0.09964    1.000
    Co30     Co       0.93664    0.49693    0.18829    1.000
    O85      O        0.80588    0.49690    0.15538    1.000
    O86      O        0.87370    0.54609    0.19768    1.000
    O87      O        0.91036    0.48049    0.06701    1.000
    O88      O        0.88724    0.43065    0.20283    1.000
    O89      O        0.94916    0.50303    0.31402    1.000
    O90      O        0.88161    0.36657    0.06721    1.000
    N43      N        0.61636    0.77955    0.35026    1.000
    C407     C        0.71801    0.65497    0.27200    1.000
    C408     C        0.80220    0.61230    0.27700    1.000
    H393     H        0.83190    0.60500    0.30710    1.000
    C409     C        0.78759    0.57705    0.21900    1.000
    C410     C        0.70329    0.61900    0.21530    1.000
    H394     H        0.66910    0.62080    0.19310    1.000
    C411     C        0.68267    0.69798    0.29830    1.000
    C412     C        0.95293    0.28389    0.92810    1.000
    H395     H        0.94090    0.29780    0.87870    1.000
    C413     C        0.73753    0.57980    0.18950    1.000
    H396     H        0.72630    0.55550    0.15180    1.000
    C414     C        0.82538    0.53634    0.18822    1.000
    C415     C        0.90418    0.50635    0.36490    1.000
    H397     H        0.88330    0.47540    0.35880    1.000
    H398     H        0.88380    0.53640    0.35040    1.000
    H399     H        0.91520    0.50950    0.41960    1.000
    C416     C        0.98910    0.24265    0.92840    1.000
    H400     H        0.00120    0.23310    0.86560    1.000
    C417     C        0.66780    0.77980    0.36160    1.000
    H401     H        0.68250    0.80920    0.38810    1.000
    C418     C        0.70180    0.74000    0.33740    1.000
    H402     H        0.73820    0.74260    0.34840    1.000
    C419     C        0.62740    0.69570    0.28240    1.000
    H403     H        0.61220    0.66660    0.25580    1.000
    C420     C        0.59660    0.73840    0.30790    1.000
    H404     H        0.56040    0.73850    0.29500    1.000
    C421     C        0.76830    0.65050    0.30310    1.000
    H405     H        0.77950    0.67430    0.34330    1.000
    C422     C        0.04110    0.17590    0.98760    1.000
    C423     C        0.03280    0.13750    0.92580    1.000
    H406     H        0.00540    0.14220    0.88790    1.000
    C424     C        0.06590    0.09210    0.92130    1.000
    H407     H        0.06050    0.06680    0.88050    1.000
    N44      N        0.10730    0.08500    0.97860    1.000
    C425     C        0.11560    0.12340    0.04040    1.000
    H408     H        0.14290    0.11870    0.07830    1.000
    C426     C        0.08250    0.16880    0.04490    1.000
    H409     H        0.08790    0.19410    0.08570    1.000
    C427     C        0.65920    0.76470    0.39470    1.000
    H410     H        0.66570    0.78200    0.44400    1.000
    C428     C        0.69270    0.72590    0.37060    1.000
    H411     H        0.72260    0.71770    0.40200    1.000
    C429     C        0.64000    0.71300    0.25760    1.000
    H412     H        0.63140    0.69590    0.20880    1.000
    C430     C        0.60820    0.75280    0.28530    1.000
    H413     H        0.57810    0.76130    0.25450    1.000
    C431     C        0.04960    0.17770    0.03450    1.000
    C432     C        0.04400    0.14380    0.09580    1.000
    H414     H        0.01680    0.14880    0.13380    1.000
    C433     C        0.07690    0.10290    0.10320    1.000
    H415     H        0.07300    0.07910    0.14640    1.000
    N45      N        0.11560    0.09590    0.04940    1.000
    C434     C        0.12120    0.12970    0.98800    1.000
    H416     H        0.14840    0.12480    0.95010    1.000
    C435     C        0.08830    0.17060    0.98060    1.000
    H417     H        0.09230    0.19450    0.93740    1.000
    H418     H        0.73630    0.46440    0.94490    1.000
    H419     H        0.74190    0.49010    0.03180    1.000
    H420     H        0.72870    0.42920    0.02330    1.000
    Co31     Co       0.16047    0.56729    0.09964    1.000
    Co32     Co       0.06336    0.50307    0.18829    1.000
    O91      O        0.19412    0.50310    0.15538    1.000
    O92      O        0.12630    0.45391    0.19768    1.000
    O93      O        0.08964    0.51951    0.06701    1.000
    O94      O        0.11276    0.56935    0.20283    1.000
    O95      O        0.05084    0.49697    0.31402    1.000
    O96      O        0.11839    0.63343    0.06721    1.000
    N46      N        0.38364    0.22045    0.35026    1.000
    C436     C        0.28199    0.34503    0.27200    1.000
    C437     C        0.19780    0.38770    0.27700    1.000
    H421     H        0.16810    0.39500    0.30710    1.000
    C438     C        0.21241    0.42295    0.21900    1.000
    C439     C        0.29671    0.38100    0.21530    1.000
    H422     H        0.33090    0.37920    0.19310    1.000
    C440     C        0.31733    0.30202    0.29830    1.000
    C441     C        0.04707    0.71611    0.92810    1.000
    H423     H        0.05910    0.70220    0.87870    1.000
    C442     C        0.26247    0.42020    0.18950    1.000
    H424     H        0.27370    0.44450    0.15180    1.000
    C443     C        0.17462    0.46366    0.18822    1.000
    C444     C        0.09582    0.49365    0.36490    1.000
    H425     H        0.11670    0.52460    0.35880    1.000
    H426     H        0.11620    0.46360    0.35040    1.000
    H427     H        0.08480    0.49050    0.41960    1.000
    C445     C        0.01090    0.75735    0.92840    1.000
    H428     H        0.99880    0.76690    0.86560    1.000
    C446     C        0.33220    0.22020    0.36160    1.000
    H429     H        0.31750    0.19080    0.38810    1.000
    C447     C        0.29820    0.26000    0.33740    1.000
    H430     H        0.26180    0.25740    0.34840    1.000
    C448     C        0.37260    0.30430    0.28240    1.000
    H431     H        0.38780    0.33340    0.25580    1.000
    C449     C        0.40340    0.26160    0.30790    1.000
    H432     H        0.43960    0.26150    0.29500    1.000
    C450     C        0.23170    0.34950    0.30310    1.000
    H433     H        0.22050    0.32570    0.34330    1.000
    C451     C        0.95890    0.82410    0.98760    1.000
    C452     C        0.96720    0.86250    0.92580    1.000
    H434     H        0.99460    0.85780    0.88790    1.000
    C453     C        0.93410    0.90790    0.92130    1.000
    H435     H        0.93950    0.93320    0.88050    1.000
    N47      N        0.89270    0.91500    0.97860    1.000
    C454     C        0.88440    0.87660    0.04040    1.000
    H436     H        0.85710    0.88130    0.07830    1.000
    C455     C        0.91750    0.83120    0.04490    1.000
    H437     H        0.91210    0.80590    0.08570    1.000
    C456     C        0.34080    0.23530    0.39470    1.000
    H438     H        0.33430    0.21800    0.44400    1.000
    C457     C        0.30730    0.27410    0.37060    1.000
    H439     H        0.27740    0.28230    0.40200    1.000
    C458     C        0.36000    0.28700    0.25760    1.000
    H440     H        0.36860    0.30410    0.20880    1.000
    C459     C        0.39180    0.24720    0.28530    1.000
    H441     H        0.42190    0.23870    0.25450    1.000
    C460     C        0.95040    0.82230    0.03450    1.000
    C461     C        0.95600    0.85620    0.09580    1.000
    H442     H        0.98320    0.85120    0.13380    1.000
    C462     C        0.92310    0.89710    0.10320    1.000
    H443     H        0.92700    0.92090    0.14640    1.000
    N48      N        0.88440    0.90410    0.04940    1.000
    C463     C        0.87880    0.87030    0.98800    1.000
    H444     H        0.85160    0.87520    0.95010    1.000
    C464     C        0.91170    0.82940    0.98060    1.000
    H445     H        0.90770    0.80550    0.93740    1.000
    H446     H        0.26370    0.53560    0.94490    1.000
    H447     H        0.25810    0.50990    0.03180    1.000
    H448     H        0.27130    0.57080    0.02330    1.000
    O97      O        0.05310    0.69824    0.50000    1.000
    C465     C        0.00603    0.57221    0.50000    1.000
    H449     H        0.98330    0.54280    0.50000    1.000
    C466     C        0.15078    0.60370    0.50000    1.000
    C467     C        0.04150    0.75190    0.50000    1.000
    C468     C        0.27860    0.49300    0.50000    1.000
    C469     C        0.19544    0.56540    0.50000    1.000
    O98      O        0.94690    0.30176    0.50000    1.000
    C470     C        0.99397    0.42779    0.50000    1.000
    H450     H        0.01670    0.45720    0.50000    1.000
    C471     C        0.84922    0.39630    0.50000    1.000
    C472     C        0.95850    0.24810    0.50000    1.000
    C473     C        0.72140    0.50700    0.50000    1.000
    C474     C        0.80456    0.43460    0.50000    1.000
    O99      O        0.30176    0.05310    0.00000    1.000
    C475     C        0.42779    0.00603    0.00000    1.000
    H451     H        0.45720    0.98330    0.00000    1.000
    C476     C        0.39630    0.15078    0.00000    1.000
    C477     C        0.24810    0.04150    0.00000    1.000
    C478     C        0.50700    0.27860    0.00000    1.000
    C479     C        0.43460    0.19544    0.00000    1.000
    O100     O        0.69824    0.94690    0.00000    1.000
    C480     C        0.57221    0.99397    0.00000    1.000
    H452     H        0.54280    0.01670    0.00000    1.000
    C481     C        0.60370    0.84922    0.00000    1.000
    C482     C        0.75190    0.95850    0.00000    1.000
    C483     C        0.49300    0.72140    0.00000    1.000
    C484     C        0.56540    0.80456    0.00000    1.000
    O101     O        0.44690    0.19824    0.50000    1.000
    C485     C        0.49397    0.07221    0.50000    1.000
    H453     H        0.51670    0.04280    0.50000    1.000
    C486     C        0.34922    0.10370    0.50000    1.000
    C487     C        0.45850    0.25190    0.50000    1.000
    C488     C        0.22140    0.99300    0.50000    1.000
    C489     C        0.30456    0.06540    0.50000    1.000
    O102     O        0.55310    0.80176    0.50000    1.000
    C490     C        0.50603    0.92779    0.50000    1.000
    H454     H        0.48330    0.95720    0.50000    1.000
    C491     C        0.65078    0.89630    0.50000    1.000
    C492     C        0.54150    0.74810    0.50000    1.000
    C493     C        0.77860    0.00700    0.50000    1.000
    C494     C        0.69544    0.93460    0.50000    1.000
    O103     O        0.19824    0.55310    0.00000    1.000
    C495     C        0.07221    0.50603    0.00000    1.000
    H455     H        0.04280    0.48330    0.00000    1.000
    C496     C        0.10370    0.65078    0.00000    1.000
    C497     C        0.25190    0.54150    0.00000    1.000
    C498     C        0.99300    0.77860    0.00000    1.000
    C499     C        0.06540    0.69544    0.00000    1.000
    O104     O        0.80176    0.44690    0.00000    1.000
    C500     C        0.92779    0.49397    0.00000    1.000
    H456     H        0.95720    0.51670    0.00000    1.000
    C501     C        0.89630    0.34922    0.00000    1.000
    C502     C        0.74810    0.45850    0.00000    1.000
    C503     C        0.00700    0.22140    0.00000    1.000
    C504     C        0.93460    0.30456    0.00000    1.000
    C505     C        0.10736    0.60736    0.75000    1.000
    H457     H        0.13400    0.63400    0.75000    1.000
    C506     C        0.89264    0.39264    0.75000    1.000
    H458     H        0.86600    0.36600    0.75000    1.000
    C507     C        0.39264    0.10736    0.25000    1.000
    H459     H        0.36600    0.13400    0.25000    1.000
    C508     C        0.60736    0.89264    0.25000    1.000
    H460     H        0.63400    0.86600    0.25000    1.000
    C509     C        0.89264    0.39264    0.25000    1.000
    H461     H        0.86600    0.36600    0.25000    1.000
    C510     C        0.10736    0.60736    0.25000    1.000
    H462     H        0.13400    0.63400    0.25000    1.000
    C511     C        0.60736    0.89264    0.75000    1.000
    H463     H        0.63400    0.86600    0.75000    1.000
    C512     C        0.39264    0.10736    0.75000    1.000
    H464     H        0.36600    0.13400    0.75000    1.000
