# CIF file generated by openbabel 3.1.0, see https://openbabel.org
data_I
_chemical_name_common 'image0'
_cell_length_a 16.2799
_cell_length_b 7.2214
_cell_length_c 24.2716
_cell_angle_alpha 90
_cell_angle_beta 116.419
_cell_angle_gamma 90
_space_group_name_H-M_alt 'P 1'
_space_group_name_Hall 'P 1'
loop_
    _symmetry_equiv_pos_as_xyz
    x,y,z
loop_
    _atom_site_label
    _atom_site_type_symbol
    _atom_site_fract_x
    _atom_site_fract_y
    _atom_site_fract_z
    _atom_site_occupancy
    Co1      Co       0.44146    0.16272    0.98468    1.000
    F1       F        0.94483    0.33180    0.88846    1.000
    F2       F        0.91190    0.47310    0.80375    1.000
    F3       F        0.82643    0.25380    0.80654    1.000
    F4       F        0.94566    0.74510    0.88884    1.000
    F5       F        0.92151    0.59540    0.95639    1.000
    F6       F        0.83314    0.81981    0.90781    1.000
    O1       O        0.51880    0.29850    0.95171    1.000
    O2       O        0.52486    0.77140    0.57305    1.000
    O3       O        0.61477    0.02160    0.59776    1.000
    O4       O        0.61142    0.05230    0.98107    1.000
    N1       N        0.32734    0.32460    0.96340    1.000
    N2       N        0.21971    0.53240    0.91657    1.000
    C1       C        0.03993    0.75500    0.77963    1.000
    C2       C        0.06064    0.94080    0.79518    1.000
    C3       C        0.13343    0.99780    0.84916    1.000
    H1       H        0.14630    0.12270    0.85830    1.000
    C4       C        0.18627    0.86120    0.88896    1.000
    H2       H        0.23570    0.89370    0.92590    1.000
    C5       C        0.16604    0.67500    0.87405    1.000
    C6       C        0.09396    0.61930    0.81961    1.000
    H3       H        0.08210    0.49440    0.81010    1.000
    C7       C        0.30334    0.47020    0.92697    1.000
    H4       H        0.33960    0.52340    0.91050    1.000
    C8       C        0.25588    0.29340    0.97784    1.000
    H5       H        0.25370    0.19930    0.00330    1.000
    C9       C        0.18931    0.42010    0.94935    1.000
    H6       H        0.13380    0.42950    0.95150    1.000
    C10      C        0.58765    0.20850    0.95598    1.000
    C11      C        0.64635    0.29440    0.92938    1.000
    C12      C        0.62506    0.46550    0.90082    1.000
    H7       H        0.57440    0.53070    0.89870    1.000
    C13      C        0.67899    0.54000    0.87540    1.000
    H8       H        0.66360    0.65460    0.85590    1.000
    C14      C        0.75523    0.44710    0.87851    1.000
    C15      C        0.77775    0.27770    0.90869    1.000
    H9       H        0.82980    0.21480    0.91240    1.000
    C16      C        0.72357    0.20210    0.93328    1.000
    H10      H        0.73900    0.08760    0.95280    1.000
    C17      C        0.81508    0.54080    0.85158    1.000
    C18      C        0.75499    0.63810    0.78984    1.000
    C19      C        0.59065    0.86780    0.60976    1.000
    C20      C        0.64634    0.78910    0.67323    1.000
    C21      C        0.71855    0.88880    0.71723    1.000
    H11      H        0.73070    0.00770    0.70800    1.000
    C22      C        0.77286    0.81420    0.77460    1.000
    H12      H        0.82170    0.88230    0.80320    1.000
    C23      C        0.68195    0.53920    0.74581    1.000
    H13      H        0.66870    0.42150    0.75530    1.000
    C24      C        0.62882    0.61310    0.68827    1.000
    H14      H        0.58080    0.54410    0.65930    1.000
    C25      C        0.87941    0.67560    0.90115    1.000
    C26      C        0.87497    0.39840    0.83790    1.000
    Co2      Co       0.55854    0.16272    0.51532    1.000
    F7       F        0.05517    0.33180    0.61154    1.000
    F8       F        0.08810    0.47310    0.69625    1.000
    F9       F        0.17357    0.25380    0.69346    1.000
    F10      F        0.05434    0.74510    0.61116    1.000
    F11      F        0.07849    0.59540    0.54361    1.000
    F12      F        0.16686    0.81981    0.59219    1.000
    O5       O        0.48120    0.29850    0.54829    1.000
    O6       O        0.47514    0.77140    0.92695    1.000
    O7       O        0.38523    0.02160    0.90224    1.000
    O8       O        0.38858    0.05230    0.51893    1.000
    N3       N        0.67266    0.32460    0.53660    1.000
    N4       N        0.78029    0.53240    0.58343    1.000
    C27      C        0.96007    0.75500    0.72037    1.000
    C28      C        0.93936    0.94080    0.70482    1.000
    C29      C        0.86657    0.99780    0.65084    1.000
    H15      H        0.85370    0.12270    0.64170    1.000
    C30      C        0.81373    0.86120    0.61104    1.000
    H16      H        0.76430    0.89370    0.57410    1.000
    C31      C        0.83396    0.67500    0.62595    1.000
    C32      C        0.90604    0.61930    0.68039    1.000
    H17      H        0.91790    0.49440    0.68990    1.000
    C33      C        0.69666    0.47020    0.57303    1.000
    H18      H        0.66040    0.52340    0.58950    1.000
    C34      C        0.74412    0.29340    0.52216    1.000
    H19      H        0.74630    0.19930    0.49670    1.000
    C35      C        0.81069    0.42010    0.55065    1.000
    H20      H        0.86620    0.42950    0.54850    1.000
    C36      C        0.41235    0.20850    0.54402    1.000
    C37      C        0.35365    0.29440    0.57062    1.000
    C38      C        0.37494    0.46550    0.59918    1.000
    H21      H        0.42560    0.53070    0.60130    1.000
    C39      C        0.32101    0.54000    0.62460    1.000
    H22      H        0.33640    0.65460    0.64410    1.000
    C40      C        0.24477    0.44710    0.62149    1.000
    C41      C        0.22225    0.27770    0.59131    1.000
    H23      H        0.17020    0.21480    0.58760    1.000
    C42      C        0.27643    0.20210    0.56672    1.000
    H24      H        0.26100    0.08760    0.54720    1.000
    C43      C        0.18492    0.54080    0.64842    1.000
    C44      C        0.24501    0.63810    0.71016    1.000
    C45      C        0.40935    0.86780    0.89024    1.000
    C46      C        0.35366    0.78910    0.82677    1.000
    C47      C        0.28145    0.88880    0.78277    1.000
    H25      H        0.26930    0.00770    0.79200    1.000
    C48      C        0.22714    0.81420    0.72540    1.000
    H26      H        0.17830    0.88230    0.69680    1.000
    C49      C        0.31805    0.53920    0.75419    1.000
    H27      H        0.33130    0.42150    0.74470    1.000
    C50      C        0.37118    0.61310    0.81173    1.000
    H28      H        0.41920    0.54410    0.84070    1.000
    C51      C        0.12059    0.67560    0.59885    1.000
    C52      C        0.12503    0.39840    0.66210    1.000
    Co3      Co       0.55854    0.83728    0.01532    1.000
    F13      F        0.05517    0.66820    0.11154    1.000
    F14      F        0.08810    0.52690    0.19625    1.000
    F15      F        0.17357    0.74620    0.19346    1.000
    F16      F        0.05434    0.25490    0.11116    1.000
    F17      F        0.07849    0.40460    0.04361    1.000
    F18      F        0.16686    0.18019    0.09219    1.000
    O9       O        0.48120    0.70150    0.04829    1.000
    O10      O        0.47514    0.22860    0.42695    1.000
    O11      O        0.38523    0.97840    0.40224    1.000
    O12      O        0.38858    0.94770    0.01893    1.000
    N5       N        0.67266    0.67540    0.03660    1.000
    N6       N        0.78029    0.46760    0.08343    1.000
    C53      C        0.96007    0.24500    0.22037    1.000
    C54      C        0.93936    0.05920    0.20482    1.000
    C55      C        0.86657    0.00220    0.15084    1.000
    H29      H        0.85370    0.87730    0.14170    1.000
    C56      C        0.81373    0.13880    0.11104    1.000
    H30      H        0.76430    0.10630    0.07410    1.000
    C57      C        0.83396    0.32500    0.12595    1.000
    C58      C        0.90604    0.38070    0.18039    1.000
    H31      H        0.91790    0.50560    0.18990    1.000
    C59      C        0.69666    0.52980    0.07303    1.000
    H32      H        0.66040    0.47660    0.08950    1.000
    C60      C        0.74412    0.70660    0.02216    1.000
    H33      H        0.74630    0.80070    0.99670    1.000
    C61      C        0.81069    0.57990    0.05065    1.000
    H34      H        0.86620    0.57050    0.04850    1.000
    C62      C        0.41235    0.79150    0.04402    1.000
    C63      C        0.35365    0.70560    0.07062    1.000
    C64      C        0.37494    0.53450    0.09918    1.000
    H35      H        0.42560    0.46930    0.10130    1.000
    C65      C        0.32101    0.46000    0.12460    1.000
    H36      H        0.33640    0.34540    0.14410    1.000
    C66      C        0.24477    0.55290    0.12149    1.000
    C67      C        0.22225    0.72230    0.09131    1.000
    H37      H        0.17020    0.78520    0.08760    1.000
    C68      C        0.27643    0.79790    0.06672    1.000
    H38      H        0.26100    0.91240    0.04720    1.000
    C69      C        0.18492    0.45920    0.14842    1.000
    C70      C        0.24501    0.36190    0.21016    1.000
    C71      C        0.40935    0.13220    0.39024    1.000
    C72      C        0.35366    0.21090    0.32677    1.000
    C73      C        0.28145    0.11120    0.28277    1.000
    H39      H        0.26930    0.99230    0.29200    1.000
    C74      C        0.22714    0.18580    0.22540    1.000
    H40      H        0.17830    0.11770    0.19680    1.000
    C75      C        0.31805    0.46080    0.25419    1.000
    H41      H        0.33130    0.57850    0.24470    1.000
    C76      C        0.37118    0.38690    0.31173    1.000
    H42      H        0.41920    0.45590    0.34070    1.000
    C77      C        0.12059    0.32440    0.09885    1.000
    C78      C        0.12503    0.60160    0.16210    1.000
    Co4      Co       0.44146    0.83728    0.48468    1.000
    F19      F        0.94483    0.66820    0.38846    1.000
    F20      F        0.91190    0.52690    0.30375    1.000
    F21      F        0.82643    0.74620    0.30654    1.000
    F22      F        0.94566    0.25490    0.38884    1.000
    F23      F        0.92151    0.40460    0.45639    1.000
    F24      F        0.83314    0.18019    0.40781    1.000
    O13      O        0.51880    0.70150    0.45171    1.000
    O14      O        0.52486    0.22860    0.07305    1.000
    O15      O        0.61477    0.97840    0.09776    1.000
    O16      O        0.61142    0.94770    0.48107    1.000
    N7       N        0.32734    0.67540    0.46340    1.000
    N8       N        0.21971    0.46760    0.41657    1.000
    C79      C        0.03993    0.24500    0.27963    1.000
    C80      C        0.06064    0.05920    0.29518    1.000
    C81      C        0.13343    0.00220    0.34916    1.000
    H43      H        0.14630    0.87730    0.35830    1.000
    C82      C        0.18627    0.13880    0.38896    1.000
    H44      H        0.23570    0.10630    0.42590    1.000
    C83      C        0.16604    0.32500    0.37405    1.000
    C84      C        0.09396    0.38070    0.31961    1.000
    H45      H        0.08210    0.50560    0.31010    1.000
    C85      C        0.30334    0.52980    0.42697    1.000
    H46      H        0.33960    0.47660    0.41050    1.000
    C86      C        0.25588    0.70660    0.47784    1.000
    H47      H        0.25370    0.80070    0.50330    1.000
    C87      C        0.18931    0.57990    0.44935    1.000
    H48      H        0.13380    0.57050    0.45150    1.000
    C88      C        0.58765    0.79150    0.45598    1.000
    C89      C        0.64635    0.70560    0.42938    1.000
    C90      C        0.62506    0.53450    0.40082    1.000
    H49      H        0.57440    0.46930    0.39870    1.000
    C91      C        0.67899    0.46000    0.37540    1.000
    H50      H        0.66360    0.34540    0.35590    1.000
    C92      C        0.75523    0.55290    0.37851    1.000
    C93      C        0.77775    0.72230    0.40869    1.000
    H51      H        0.82980    0.78520    0.41240    1.000
    C94      C        0.72357    0.79790    0.43328    1.000
    H52      H        0.73900    0.91240    0.45280    1.000
    C95      C        0.81508    0.45920    0.35158    1.000
    C96      C        0.75499    0.36190    0.28984    1.000
    C97      C        0.59065    0.13220    0.10976    1.000
    C98      C        0.64634    0.21090    0.17323    1.000
    C99      C        0.71855    0.11120    0.21723    1.000
    H53      H        0.73070    0.99230    0.20800    1.000
    C100     C        0.77286    0.18580    0.27460    1.000
    H54      H        0.82170    0.11770    0.30320    1.000
    C101     C        0.68195    0.46080    0.24581    1.000
    H55      H        0.66870    0.57850    0.25530    1.000
    C102     C        0.62882    0.38690    0.18827    1.000
    H56      H        0.58080    0.45590    0.15930    1.000
    C103     C        0.87941    0.32440    0.40115    1.000
    C104     C        0.87497    0.60160    0.33790    1.000
    O17      O        0.00000    0.05730    0.75000    1.000
    O18      O        0.00000    0.94270    0.25000    1.000
