# CIF file generated by openbabel 3.1.0, see https://openbabel.org
data_I
_chemical_name_common 'image0'
_cell_length_a 21.685
_cell_length_b 21.685
_cell_length_c 16.47
_cell_angle_alpha 90
_cell_angle_beta 90
_cell_angle_gamma 90
_space_group_name_H-M_alt 'P 1'
_space_group_name_Hall 'P 1'
loop_
    _symmetry_equiv_pos_as_xyz
    x,y,z
loop_
    _atom_site_label
    _atom_site_type_symbol
    _atom_site_fract_x
    _atom_site_fract_y
    _atom_site_fract_z
    _atom_site_occupancy
    Sm1      Sm       0.82726    0.63680    0.36747    1.000
    O1       O        0.75020    0.61090    0.26460    1.000
    O2       O        0.72160    0.56860    0.14560    1.000
    O3       O        0.93480    0.61100    0.36550    1.000
    O4       O        0.01860    0.57080    0.30510    1.000
    N1       N        0.86460    0.57980    0.24210    1.000
    C1       C        0.76130    0.58290    0.19820    1.000
    C2       C        0.82580    0.56280    0.18250    1.000
    C3       C        0.84620    0.53110    0.11620    1.000
    H1       H        0.81930    0.52150    0.07420    1.000
    C4       C        0.90700    0.51340    0.11210    1.000
    H2       H        0.92080    0.49040    0.06800    1.000
    C5       C        0.94720    0.52950    0.17210    1.000
    H3       H        0.98840    0.51770    0.17010    1.000
    C6       C        0.92450    0.56370    0.23540    1.000
    C7       C        0.96300    0.58260    0.30670    1.000
    Sm2      Sm       0.32726    0.13680    0.86747    1.000
    O5       O        0.25020    0.11090    0.76460    1.000
    O6       O        0.22160    0.06860    0.64560    1.000
    O7       O        0.43480    0.11100    0.86550    1.000
    O8       O        0.51860    0.07080    0.80510    1.000
    N2       N        0.36460    0.07980    0.74210    1.000
    C8       C        0.26130    0.08290    0.69820    1.000
    C9       C        0.32580    0.06280    0.68250    1.000
    C10      C        0.34620    0.03110    0.61620    1.000
    H4       H        0.31930    0.02150    0.57420    1.000
    C11      C        0.40700    0.01340    0.61210    1.000
    H5       H        0.42080    0.99040    0.56800    1.000
    C12      C        0.44720    0.02950    0.67210    1.000
    H6       H        0.48840    0.01770    0.67010    1.000
    C13      C        0.42450    0.06370    0.73540    1.000
    C14      C        0.46300    0.08260    0.80670    1.000
    Sm3      Sm       0.67274    0.36320    0.86747    1.000
    O9       O        0.74980    0.38910    0.76460    1.000
    O10      O        0.77840    0.43140    0.64560    1.000
    O11      O        0.56520    0.38900    0.86550    1.000
    O12      O        0.48140    0.42920    0.80510    1.000
    N3       N        0.63540    0.42020    0.74210    1.000
    C15      C        0.73870    0.41710    0.69820    1.000
    C16      C        0.67420    0.43720    0.68250    1.000
    C17      C        0.65380    0.46890    0.61620    1.000
    H7       H        0.68070    0.47850    0.57420    1.000
    C18      C        0.59300    0.48660    0.61210    1.000
    H8       H        0.57920    0.50960    0.56800    1.000
    C19      C        0.55280    0.47050    0.67210    1.000
    H9       H        0.51160    0.48230    0.67010    1.000
    C20      C        0.57550    0.43630    0.73540    1.000
    C21      C        0.53700    0.41740    0.80670    1.000
    Sm4      Sm       0.17274    0.86320    0.36747    1.000
    O13      O        0.24980    0.88910    0.26460    1.000
    O14      O        0.27840    0.93140    0.14560    1.000
    O15      O        0.06520    0.88900    0.36550    1.000
    O16      O        0.98140    0.92920    0.30510    1.000
    N4       N        0.13540    0.92020    0.24210    1.000
    C22      C        0.23870    0.91710    0.19820    1.000
    C23      C        0.17420    0.93720    0.18250    1.000
    C24      C        0.15380    0.96890    0.11620    1.000
    H10      H        0.18070    0.97850    0.07420    1.000
    C25      C        0.09300    0.98660    0.11210    1.000
    H11      H        0.07920    0.00960    0.06800    1.000
    C26      C        0.05280    0.97050    0.17210    1.000
    H12      H        0.01160    0.98230    0.17010    1.000
    C27      C        0.07550    0.93630    0.23540    1.000
    C28      C        0.03700    0.91740    0.30670    1.000
    Sm5      Sm       0.11320    0.07726    0.61747    1.000
    O17      O        0.13910    0.00020    0.51460    1.000
    O18      O        0.18140    0.97160    0.39560    1.000
    O19      O        0.13900    0.18480    0.61550    1.000
    O20      O        0.17920    0.26860    0.55510    1.000
    N5       N        0.17020    0.11460    0.49210    1.000
    C29      C        0.16710    0.01130    0.44820    1.000
    C30      C        0.18720    0.07580    0.43250    1.000
    C31      C        0.21890    0.09620    0.36620    1.000
    H13      H        0.22850    0.06930    0.32420    1.000
    C32      C        0.23660    0.15700    0.36210    1.000
    H14      H        0.25960    0.17080    0.31800    1.000
    C33      C        0.22050    0.19720    0.42210    1.000
    H15      H        0.23230    0.23840    0.42010    1.000
    C34      C        0.18630    0.17450    0.48540    1.000
    C35      C        0.16740    0.21300    0.55670    1.000
    Sm6      Sm       0.61320    0.57726    0.11747    1.000
    O21      O        0.63910    0.50020    0.01460    1.000
    O22      O        0.68140    0.47160    0.89560    1.000
    O23      O        0.63900    0.68480    0.11550    1.000
    O24      O        0.67920    0.76860    0.05510    1.000
    N6       N        0.67020    0.61460    0.99210    1.000
    C36      C        0.66710    0.51130    0.94820    1.000
    C37      C        0.68720    0.57580    0.93250    1.000
    C38      C        0.71890    0.59620    0.86620    1.000
    H16      H        0.72850    0.56930    0.82420    1.000
    C39      C        0.73660    0.65700    0.86210    1.000
    H17      H        0.75960    0.67080    0.81800    1.000
    C40      C        0.72050    0.69720    0.92210    1.000
    H18      H        0.73230    0.73840    0.92010    1.000
    C41      C        0.68630    0.67450    0.98540    1.000
    C42      C        0.66740    0.71300    0.05670    1.000
    Sm7      Sm       0.38680    0.92274    0.11747    1.000
    O25      O        0.36090    0.99980    0.01460    1.000
    O26      O        0.31860    0.02840    0.89560    1.000
    O27      O        0.36100    0.81520    0.11550    1.000
    O28      O        0.32080    0.73140    0.05510    1.000
    N7       N        0.32980    0.88540    0.99210    1.000
    C43      C        0.33290    0.98870    0.94820    1.000
    C44      C        0.31280    0.92420    0.93250    1.000
    C45      C        0.28110    0.90380    0.86620    1.000
    H19      H        0.27150    0.93070    0.82420    1.000
    C46      C        0.26340    0.84300    0.86210    1.000
    H20      H        0.24040    0.82920    0.81800    1.000
    C47      C        0.27950    0.80280    0.92210    1.000
    H21      H        0.26770    0.76160    0.92010    1.000
    C48      C        0.31370    0.82550    0.98540    1.000
    C49      C        0.33260    0.78700    0.05670    1.000
    Sm8      Sm       0.88680    0.42274    0.61747    1.000
    O29      O        0.86090    0.49980    0.51460    1.000
    O30      O        0.81860    0.52840    0.39560    1.000
    O31      O        0.86100    0.31520    0.61550    1.000
    O32      O        0.82080    0.23140    0.55510    1.000
    N8       N        0.82980    0.38540    0.49210    1.000
    C50      C        0.83290    0.48870    0.44820    1.000
    C51      C        0.81280    0.42420    0.43250    1.000
    C52      C        0.78110    0.40380    0.36620    1.000
    H22      H        0.77150    0.43070    0.32420    1.000
    C53      C        0.76340    0.34300    0.36210    1.000
    H23      H        0.74040    0.32920    0.31800    1.000
    C54      C        0.77950    0.30280    0.42210    1.000
    H24      H        0.76770    0.26160    0.42010    1.000
    C55      C        0.81370    0.32550    0.48540    1.000
    C56      C        0.83260    0.28700    0.55670    1.000
    Sm9      Sm       0.17274    0.36320    0.63253    1.000
    O33      O        0.24980    0.38910    0.73540    1.000
    O34      O        0.27840    0.43140    0.85440    1.000
    O35      O        0.06520    0.38900    0.63450    1.000
    O36      O        0.98140    0.42920    0.69490    1.000
    N9       N        0.13540    0.42020    0.75790    1.000
    C57      C        0.23870    0.41710    0.80180    1.000
    C58      C        0.17420    0.43720    0.81750    1.000
    C59      C        0.15380    0.46890    0.88380    1.000
    H25      H        0.18070    0.47850    0.92580    1.000
    C60      C        0.09300    0.48660    0.88790    1.000
    H26      H        0.07920    0.50960    0.93200    1.000
    C61      C        0.05280    0.47050    0.82790    1.000
    H27      H        0.01160    0.48230    0.82990    1.000
    C62      C        0.07550    0.43630    0.76460    1.000
    C63      C        0.03700    0.41740    0.69330    1.000
    Sm10     Sm       0.67274    0.86320    0.13253    1.000
    O37      O        0.74980    0.88910    0.23540    1.000
    O38      O        0.77840    0.93140    0.35440    1.000
    O39      O        0.56520    0.88900    0.13450    1.000
    O40      O        0.48140    0.92920    0.19490    1.000
    N10      N        0.63540    0.92020    0.25790    1.000
    C64      C        0.73870    0.91710    0.30180    1.000
    C65      C        0.67420    0.93720    0.31750    1.000
    C66      C        0.65380    0.96890    0.38380    1.000
    H28      H        0.68070    0.97850    0.42580    1.000
    C67      C        0.59300    0.98660    0.38790    1.000
    H29      H        0.57920    0.00960    0.43200    1.000
    C68      C        0.55280    0.97050    0.32790    1.000
    H30      H        0.51160    0.98230    0.32990    1.000
    C69      C        0.57550    0.93630    0.26460    1.000
    C70      C        0.53700    0.91740    0.19330    1.000
    Sm11     Sm       0.32726    0.63680    0.13253    1.000
    O41      O        0.25020    0.61090    0.23540    1.000
    O42      O        0.22160    0.56860    0.35440    1.000
    O43      O        0.43480    0.61100    0.13450    1.000
    O44      O        0.51860    0.57080    0.19490    1.000
    N11      N        0.36460    0.57980    0.25790    1.000
    C71      C        0.26130    0.58290    0.30180    1.000
    C72      C        0.32580    0.56280    0.31750    1.000
    C73      C        0.34620    0.53110    0.38380    1.000
    H31      H        0.31930    0.52150    0.42580    1.000
    C74      C        0.40700    0.51340    0.38790    1.000
    H32      H        0.42080    0.49040    0.43200    1.000
    C75      C        0.44720    0.52950    0.32790    1.000
    H33      H        0.48840    0.51770    0.32990    1.000
    C76      C        0.42450    0.56370    0.26460    1.000
    C77      C        0.46300    0.58260    0.19330    1.000
    Sm12     Sm       0.82726    0.13680    0.63253    1.000
    O45      O        0.75020    0.11090    0.73540    1.000
    O46      O        0.72160    0.06860    0.85440    1.000
    O47      O        0.93480    0.11100    0.63450    1.000
    O48      O        0.01860    0.07080    0.69490    1.000
    N12      N        0.86460    0.07980    0.75790    1.000
    C78      C        0.76130    0.08290    0.80180    1.000
    C79      C        0.82580    0.06280    0.81750    1.000
    C80      C        0.84620    0.03110    0.88380    1.000
    H34      H        0.81930    0.02150    0.92580    1.000
    C81      C        0.90700    0.01340    0.88790    1.000
    H35      H        0.92080    0.99040    0.93200    1.000
    C82      C        0.94720    0.02950    0.82790    1.000
    H36      H        0.98840    0.01770    0.82990    1.000
    C83      C        0.92450    0.06370    0.76460    1.000
    C84      C        0.96300    0.08260    0.69330    1.000
    Sm13     Sm       0.88680    0.92274    0.38253    1.000
    O49      O        0.86090    0.99980    0.48540    1.000
    O50      O        0.81860    0.02840    0.60440    1.000
    O51      O        0.86100    0.81520    0.38450    1.000
    O52      O        0.82080    0.73140    0.44490    1.000
    N13      N        0.82980    0.88540    0.50790    1.000
    C85      C        0.83290    0.98870    0.55180    1.000
    C86      C        0.81280    0.92420    0.56750    1.000
    C87      C        0.78110    0.90380    0.63380    1.000
    H37      H        0.77150    0.93070    0.67580    1.000
    C88      C        0.76340    0.84300    0.63790    1.000
    H38      H        0.74040    0.82920    0.68200    1.000
    C89      C        0.77950    0.80280    0.57790    1.000
    H39      H        0.76770    0.76160    0.57990    1.000
    C90      C        0.81370    0.82550    0.51460    1.000
    C91      C        0.83260    0.78700    0.44330    1.000
    Sm14     Sm       0.38680    0.42274    0.88253    1.000
    O53      O        0.36090    0.49980    0.98540    1.000
    O54      O        0.31860    0.52840    0.10440    1.000
    O55      O        0.36100    0.31520    0.88450    1.000
    O56      O        0.32080    0.23140    0.94490    1.000
    N14      N        0.32980    0.38540    0.00790    1.000
    C92      C        0.33290    0.48870    0.05180    1.000
    C93      C        0.31280    0.42420    0.06750    1.000
    C94      C        0.28110    0.40380    0.13380    1.000
    H40      H        0.27150    0.43070    0.17580    1.000
    C95      C        0.26340    0.34300    0.13790    1.000
    H41      H        0.24040    0.32920    0.18200    1.000
    C96      C        0.27950    0.30280    0.07790    1.000
    H42      H        0.26770    0.26160    0.07990    1.000
    C97      C        0.31370    0.32550    0.01460    1.000
    C98      C        0.33260    0.28700    0.94330    1.000
    Sm15     Sm       0.61320    0.07726    0.88253    1.000
    O57      O        0.63910    0.00020    0.98540    1.000
    O58      O        0.68140    0.97160    0.10440    1.000
    O59      O        0.63900    0.18480    0.88450    1.000
    O60      O        0.67920    0.26860    0.94490    1.000
    N15      N        0.67020    0.11460    0.00790    1.000
    C99      C        0.66710    0.01130    0.05180    1.000
    C100     C        0.68720    0.07580    0.06750    1.000
    C101     C        0.71890    0.09620    0.13380    1.000
    H43      H        0.72850    0.06930    0.17580    1.000
    C102     C        0.73660    0.15700    0.13790    1.000
    H44      H        0.75960    0.17080    0.18200    1.000
    C103     C        0.72050    0.19720    0.07790    1.000
    H45      H        0.73230    0.23840    0.07990    1.000
    C104     C        0.68630    0.17450    0.01460    1.000
    C105     C        0.66740    0.21300    0.94330    1.000
    Sm16     Sm       0.11320    0.57726    0.38253    1.000
    O61      O        0.13910    0.50020    0.48540    1.000
    O62      O        0.18140    0.47160    0.60440    1.000
    O63      O        0.13900    0.68480    0.38450    1.000
    O64      O        0.17920    0.76860    0.44490    1.000
    N16      N        0.17020    0.61460    0.50790    1.000
    C106     C        0.16710    0.51130    0.55180    1.000
    C107     C        0.18720    0.57580    0.56750    1.000
    C108     C        0.21890    0.59620    0.63380    1.000
    H46      H        0.22850    0.56930    0.67580    1.000
    C109     C        0.23660    0.65700    0.63790    1.000
    H47      H        0.25960    0.67080    0.68200    1.000
    C110     C        0.22050    0.69720    0.57790    1.000
    H48      H        0.23230    0.73840    0.57990    1.000
    C111     C        0.18630    0.67450    0.51460    1.000
    C112     C        0.16740    0.71300    0.44330    1.000
