# CIF file generated by openbabel 3.1.0, see https://openbabel.org
data_I
_chemical_name_common 'image0'
_cell_length_a 23.276
_cell_length_b 20.665
_cell_length_c 17.502
_cell_angle_alpha 90
_cell_angle_beta 126.265
_cell_angle_gamma 90
_space_group_name_H-M_alt 'P 1'
_space_group_name_Hall 'P 1'
loop_
    _symmetry_equiv_pos_as_xyz
    x,y,z
loop_
    _atom_site_label
    _atom_site_type_symbol
    _atom_site_fract_x
    _atom_site_fract_y
    _atom_site_fract_z
    _atom_site_occupancy
    Zn1      Zn       0.14340    0.66458    0.66451    1.000
    O1       O        0.47480    0.88810    0.81950    1.000
    O2       O        0.58900    0.90850    0.92090    1.000
    O3       O        0.27720    0.67880    0.80280    1.000
    C1       C        0.40570    0.89050    0.91300    1.000
    O4       O        0.19030    0.74750    0.71380    1.000
    C2       C        0.42700    0.82580    0.94110    1.000
    C3       C        0.51170    0.95630    0.94980    1.000
    C4       C        0.55430    0.00980    0.99410    1.000
    H1       H        0.59190    0.01610    0.99000    1.000
    C5       C        0.45520    0.94560    0.95620    1.000
    C6       C        0.25450    0.73670    0.77930    1.000
    C7       C        0.37590    0.77700    0.89800    1.000
    H2       H        0.39000    0.73440    0.91710    1.000
    N1       N        0.14260    0.60110    0.75000    1.000
    C8       C        0.52650    0.91450    0.89440    1.000
    C9       C        0.30530    0.79000    0.82780    1.000
    C10      C        0.33500    0.90210    0.84580    1.000
    H3       H        0.31980    0.94470    0.82960    1.000
    C11      C        0.50090    0.80780    0.01410    1.000
    C12      C        0.28480    0.85320    0.80050    1.000
    H4       H        0.23760    0.86310    0.75210    1.000
    N2       N        0.17900    0.53020    0.85950    1.000
    C13      C        0.10740    0.52870    0.80300    1.000
    H5       H        0.07850    0.50110    0.80840    1.000
    C14      C        0.08570    0.57450    0.73730    1.000
    H6       H        0.03860    0.58590    0.69050    1.000
    C15      C        0.23890    0.42940    0.91750    1.000
    H7       H        0.25860    0.43380    0.88210    1.000
    H8       H        0.19300    0.40810    0.87710    1.000
    C16      C        0.19860    0.57410    0.82290    1.000
    H9       H        0.24540    0.58370    0.84640    1.000
    O5       O        0.52130    0.75920    0.98430    1.000
    C17      C        0.28730    0.38900    0.00300    1.000
    H10      H        0.33570    0.40490    0.03620    1.000
    H11      H        0.27350    0.39220    0.04540    1.000
    C18      C        0.22930    0.49160    0.94240    1.000
    H12      H        0.27490    0.51380    0.97980    1.000
    H13      H        0.21240    0.48710    0.98110    1.000
    C19      C        0.28430    0.32330    0.97700    1.000
    H14      H        0.29720    0.31870    0.93380    1.000
    H15      H        0.23730    0.30510    0.94820    1.000
    C20      C        0.38900    0.25200    0.09350    1.000
    H16      H        0.40310    0.24370    0.05460    1.000
    N3       N        0.33870    0.29240    0.07130    1.000
    C21      C        0.33890    0.29360    0.15440    1.000
    H17      H        0.31060    0.31930    0.16340    1.000
    N4       N        0.41820    0.22410    0.17590    1.000
    C22      C        0.38760    0.25070    0.21510    1.000
    H18      H        0.39890    0.24060    0.27430    1.000
    O6       O        0.54450    0.83570    0.06190    1.000
    Zn2      Zn       0.64340    0.16458    0.66451    1.000
    O7       O        0.97480    0.38810    0.81950    1.000
    O8       O        0.08900    0.40850    0.92090    1.000
    O9       O        0.77720    0.17880    0.80280    1.000
    C23      C        0.90570    0.39050    0.91300    1.000
    O10      O        0.69030    0.24750    0.71380    1.000
    C24      C        0.92700    0.32580    0.94110    1.000
    C25      C        0.01170    0.45630    0.94980    1.000
    C26      C        0.05430    0.50980    0.99410    1.000
    H19      H        0.09190    0.51610    0.99000    1.000
    C27      C        0.95520    0.44560    0.95620    1.000
    C28      C        0.75450    0.23670    0.77930    1.000
    C29      C        0.87590    0.27700    0.89800    1.000
    H20      H        0.89000    0.23440    0.91710    1.000
    N5       N        0.64260    0.10110    0.75000    1.000
    C30      C        0.02650    0.41450    0.89440    1.000
    C31      C        0.80530    0.29000    0.82780    1.000
    C32      C        0.83500    0.40210    0.84580    1.000
    H21      H        0.81980    0.44470    0.82960    1.000
    C33      C        0.00090    0.30780    0.01410    1.000
    C34      C        0.78480    0.35320    0.80050    1.000
    H22      H        0.73760    0.36310    0.75210    1.000
    N6       N        0.67900    0.03020    0.85950    1.000
    C35      C        0.60740    0.02870    0.80300    1.000
    H23      H        0.57850    0.00110    0.80840    1.000
    C36      C        0.58570    0.07450    0.73730    1.000
    H24      H        0.53860    0.08590    0.69050    1.000
    C37      C        0.73890    0.92940    0.91750    1.000
    H25      H        0.75860    0.93380    0.88210    1.000
    H26      H        0.69300    0.90810    0.87710    1.000
    C38      C        0.69860    0.07410    0.82290    1.000
    H27      H        0.74540    0.08370    0.84640    1.000
    O11      O        0.02130    0.25920    0.98430    1.000
    C39      C        0.78730    0.88900    0.00300    1.000
    H28      H        0.83570    0.90490    0.03620    1.000
    H29      H        0.77350    0.89220    0.04540    1.000
    C40      C        0.72930    0.99160    0.94240    1.000
    H30      H        0.77490    0.01380    0.97980    1.000
    H31      H        0.71240    0.98710    0.98110    1.000
    C41      C        0.78430    0.82330    0.97700    1.000
    H32      H        0.79720    0.81870    0.93380    1.000
    H33      H        0.73730    0.80510    0.94820    1.000
    C42      C        0.88900    0.75200    0.09350    1.000
    H34      H        0.90310    0.74370    0.05460    1.000
    N7       N        0.83870    0.79240    0.07130    1.000
    C43      C        0.83890    0.79360    0.15440    1.000
    H35      H        0.81060    0.81930    0.16340    1.000
    N8       N        0.91820    0.72410    0.17590    1.000
    C44      C        0.88760    0.75070    0.21510    1.000
    H36      H        0.89890    0.74060    0.27430    1.000
    O12      O        0.04450    0.33570    0.06190    1.000
    Zn3      Zn       0.85660    0.66458    0.83549    1.000
    O13      O        0.52520    0.88810    0.68050    1.000
    O14      O        0.41100    0.90850    0.57910    1.000
    O15      O        0.72280    0.67880    0.69720    1.000
    C45      C        0.59430    0.89050    0.58700    1.000
    O16      O        0.80970    0.74750    0.78620    1.000
    C46      C        0.57300    0.82580    0.55890    1.000
    C47      C        0.48830    0.95630    0.55020    1.000
    C48      C        0.44570    0.00980    0.50590    1.000
    H37      H        0.40810    0.01610    0.51000    1.000
    C49      C        0.54480    0.94560    0.54380    1.000
    C50      C        0.74550    0.73670    0.72070    1.000
    C51      C        0.62410    0.77700    0.60200    1.000
    H38      H        0.61000    0.73440    0.58290    1.000
    N9       N        0.85740    0.60110    0.75000    1.000
    C52      C        0.47350    0.91450    0.60560    1.000
    C53      C        0.69470    0.79000    0.67220    1.000
    C54      C        0.66500    0.90210    0.65420    1.000
    H39      H        0.68020    0.94470    0.67040    1.000
    C55      C        0.49910    0.80780    0.48590    1.000
    C56      C        0.71520    0.85320    0.69950    1.000
    H40      H        0.76240    0.86310    0.74790    1.000
    N10      N        0.82100    0.53020    0.64050    1.000
    C57      C        0.89260    0.52870    0.69700    1.000
    H41      H        0.92150    0.50110    0.69160    1.000
    C58      C        0.91430    0.57450    0.76270    1.000
    H42      H        0.96140    0.58590    0.80950    1.000
    C59      C        0.76110    0.42940    0.58250    1.000
    H43      H        0.74140    0.43380    0.61790    1.000
    H44      H        0.80700    0.40810    0.62290    1.000
    C60      C        0.80140    0.57410    0.67710    1.000
    H45      H        0.75460    0.58370    0.65360    1.000
    O17      O        0.47870    0.75920    0.51570    1.000
    C61      C        0.71270    0.38900    0.49700    1.000
    H46      H        0.66430    0.40490    0.46380    1.000
    H47      H        0.72650    0.39220    0.45460    1.000
    C62      C        0.77070    0.49160    0.55760    1.000
    H48      H        0.72510    0.51380    0.52020    1.000
    H49      H        0.78760    0.48710    0.51890    1.000
    C63      C        0.71570    0.32330    0.52300    1.000
    H50      H        0.70280    0.31870    0.56620    1.000
    H51      H        0.76270    0.30510    0.55180    1.000
    C64      C        0.61100    0.25200    0.40650    1.000
    H52      H        0.59690    0.24370    0.44540    1.000
    N11      N        0.66130    0.29240    0.42870    1.000
    C65      C        0.66110    0.29360    0.34560    1.000
    H53      H        0.68940    0.31930    0.33660    1.000
    N12      N        0.58180    0.22410    0.32410    1.000
    C66      C        0.61240    0.25070    0.28490    1.000
    H54      H        0.60110    0.24060    0.22570    1.000
    O18      O        0.45550    0.83570    0.43810    1.000
    Zn4      Zn       0.35660    0.16458    0.83549    1.000
    O19      O        0.02520    0.38810    0.68050    1.000
    O20      O        0.91100    0.40850    0.57910    1.000
    O21      O        0.22280    0.17880    0.69720    1.000
    C67      C        0.09430    0.39050    0.58700    1.000
    O22      O        0.30970    0.24750    0.78620    1.000
    C68      C        0.07300    0.32580    0.55890    1.000
    C69      C        0.98830    0.45630    0.55020    1.000
    C70      C        0.94570    0.50980    0.50590    1.000
    H55      H        0.90810    0.51610    0.51000    1.000
    C71      C        0.04480    0.44560    0.54380    1.000
    C72      C        0.24550    0.23670    0.72070    1.000
    C73      C        0.12410    0.27700    0.60200    1.000
    H56      H        0.11000    0.23440    0.58290    1.000
    N13      N        0.35740    0.10110    0.75000    1.000
    C74      C        0.97350    0.41450    0.60560    1.000
    C75      C        0.19470    0.29000    0.67220    1.000
    C76      C        0.16500    0.40210    0.65420    1.000
    H57      H        0.18020    0.44470    0.67040    1.000
    C77      C        0.99910    0.30780    0.48590    1.000
    C78      C        0.21520    0.35320    0.69950    1.000
    H58      H        0.26240    0.36310    0.74790    1.000
    N14      N        0.32100    0.03020    0.64050    1.000
    C79      C        0.39260    0.02870    0.69700    1.000
    H59      H        0.42150    0.00110    0.69160    1.000
    C80      C        0.41430    0.07450    0.76270    1.000
    H60      H        0.46140    0.08590    0.80950    1.000
    C81      C        0.26110    0.92940    0.58250    1.000
    H61      H        0.24140    0.93380    0.61790    1.000
    H62      H        0.30700    0.90810    0.62290    1.000
    C82      C        0.30140    0.07410    0.67710    1.000
    H63      H        0.25460    0.08370    0.65360    1.000
    O23      O        0.97870    0.25920    0.51570    1.000
    C83      C        0.21270    0.88900    0.49700    1.000
    H64      H        0.16430    0.90490    0.46380    1.000
    H65      H        0.22650    0.89220    0.45460    1.000
    C84      C        0.27070    0.99160    0.55760    1.000
    H66      H        0.22510    0.01380    0.52020    1.000
    H67      H        0.28760    0.98710    0.51890    1.000
    C85      C        0.21570    0.82330    0.52300    1.000
    H68      H        0.20280    0.81870    0.56620    1.000
    H69      H        0.26270    0.80510    0.55180    1.000
    C86      C        0.11100    0.75200    0.40650    1.000
    H70      H        0.09690    0.74370    0.44540    1.000
    N15      N        0.16130    0.79240    0.42870    1.000
    C87      C        0.16110    0.79360    0.34560    1.000
    H71      H        0.18940    0.81930    0.33660    1.000
    N16      N        0.08180    0.72410    0.32410    1.000
    C88      C        0.11240    0.75070    0.28490    1.000
    H72      H        0.10110    0.74060    0.22570    1.000
    O24      O        0.95550    0.33570    0.43810    1.000
    Zn5      Zn       0.85660    0.33542    0.33549    1.000
    O25      O        0.52520    0.11190    0.18050    1.000
    O26      O        0.41100    0.09150    0.07910    1.000
    O27      O        0.72280    0.32120    0.19720    1.000
    C89      C        0.59430    0.10950    0.08700    1.000
    O28      O        0.80970    0.25250    0.28620    1.000
    C90      C        0.57300    0.17420    0.05890    1.000
    C91      C        0.48830    0.04370    0.05020    1.000
    C92      C        0.44570    0.99020    0.00590    1.000
    H73      H        0.40810    0.98390    0.01000    1.000
    C93      C        0.54480    0.05440    0.04380    1.000
    C94      C        0.74550    0.26330    0.22070    1.000
    C95      C        0.62410    0.22300    0.10200    1.000
    H74      H        0.61000    0.26560    0.08290    1.000
    N17      N        0.85740    0.39890    0.25000    1.000
    C96      C        0.47350    0.08550    0.10560    1.000
    C97      C        0.69470    0.21000    0.17220    1.000
    C98      C        0.66500    0.09790    0.15420    1.000
    H75      H        0.68020    0.05530    0.17040    1.000
    C99      C        0.49910    0.19220    0.98590    1.000
    C100     C        0.71520    0.14680    0.19950    1.000
    H76      H        0.76240    0.13690    0.24790    1.000
    N18      N        0.82100    0.46980    0.14050    1.000
    C101     C        0.89260    0.47130    0.19700    1.000
    H77      H        0.92150    0.49890    0.19160    1.000
    C102     C        0.91430    0.42550    0.26270    1.000
    H78      H        0.96140    0.41410    0.30950    1.000
    C103     C        0.76110    0.57060    0.08250    1.000
    H79      H        0.74140    0.56620    0.11790    1.000
    H80      H        0.80700    0.59190    0.12290    1.000
    C104     C        0.80140    0.42590    0.17710    1.000
    H81      H        0.75460    0.41630    0.15360    1.000
    O29      O        0.47870    0.24080    0.01570    1.000
    C105     C        0.71270    0.61100    0.99700    1.000
    H82      H        0.66430    0.59510    0.96380    1.000
    H83      H        0.72650    0.60780    0.95460    1.000
    C106     C        0.77070    0.50840    0.05760    1.000
    H84      H        0.72510    0.48620    0.02020    1.000
    H85      H        0.78760    0.51290    0.01890    1.000
    C107     C        0.71570    0.67670    0.02300    1.000
    H86      H        0.70280    0.68130    0.06620    1.000
    H87      H        0.76270    0.69490    0.05180    1.000
    C108     C        0.61100    0.74800    0.90650    1.000
    H88      H        0.59690    0.75630    0.94540    1.000
    N19      N        0.66130    0.70760    0.92870    1.000
    C109     C        0.66110    0.70640    0.84560    1.000
    H89      H        0.68940    0.68070    0.83660    1.000
    N20      N        0.58180    0.77590    0.82410    1.000
    C110     C        0.61240    0.74930    0.78490    1.000
    H90      H        0.60110    0.75940    0.72570    1.000
    O30      O        0.45550    0.16430    0.93810    1.000
    Zn6      Zn       0.35660    0.83542    0.33549    1.000
    O31      O        0.02520    0.61190    0.18050    1.000
    O32      O        0.91100    0.59150    0.07910    1.000
    O33      O        0.22280    0.82120    0.19720    1.000
    C111     C        0.09430    0.60950    0.08700    1.000
    O34      O        0.30970    0.75250    0.28620    1.000
    C112     C        0.07300    0.67420    0.05890    1.000
    C113     C        0.98830    0.54370    0.05020    1.000
    C114     C        0.94570    0.49020    0.00590    1.000
    H91      H        0.90810    0.48390    0.01000    1.000
    C115     C        0.04480    0.55440    0.04380    1.000
    C116     C        0.24550    0.76330    0.22070    1.000
    C117     C        0.12410    0.72300    0.10200    1.000
    H92      H        0.11000    0.76560    0.08290    1.000
    N21      N        0.35740    0.89890    0.25000    1.000
    C118     C        0.97350    0.58550    0.10560    1.000
    C119     C        0.19470    0.71000    0.17220    1.000
    C120     C        0.16500    0.59790    0.15420    1.000
    H93      H        0.18020    0.55530    0.17040    1.000
    C121     C        0.99910    0.69220    0.98590    1.000
    C122     C        0.21520    0.64680    0.19950    1.000
    H94      H        0.26240    0.63690    0.24790    1.000
    N22      N        0.32100    0.96980    0.14050    1.000
    C123     C        0.39260    0.97130    0.19700    1.000
    H95      H        0.42150    0.99890    0.19160    1.000
    C124     C        0.41430    0.92550    0.26270    1.000
    H96      H        0.46140    0.91410    0.30950    1.000
    C125     C        0.26110    0.07060    0.08250    1.000
    H97      H        0.24140    0.06620    0.11790    1.000
    H98      H        0.30700    0.09190    0.12290    1.000
    C126     C        0.30140    0.92590    0.17710    1.000
    H99      H        0.25460    0.91630    0.15360    1.000
    O35      O        0.97870    0.74080    0.01570    1.000
    C127     C        0.21270    0.11100    0.99700    1.000
    H100     H        0.16430    0.09510    0.96380    1.000
    H101     H        0.22650    0.10780    0.95460    1.000
    C128     C        0.27070    0.00840    0.05760    1.000
    H102     H        0.22510    0.98620    0.02020    1.000
    H103     H        0.28760    0.01290    0.01890    1.000
    C129     C        0.21570    0.17670    0.02300    1.000
    H104     H        0.20280    0.18130    0.06620    1.000
    H105     H        0.26270    0.19490    0.05180    1.000
    C130     C        0.11100    0.24800    0.90650    1.000
    H106     H        0.09690    0.25630    0.94540    1.000
    N23      N        0.16130    0.20760    0.92870    1.000
    C131     C        0.16110    0.20640    0.84560    1.000
    H107     H        0.18940    0.18070    0.83660    1.000
    N24      N        0.08180    0.27590    0.82410    1.000
    C132     C        0.11240    0.24930    0.78490    1.000
    H108     H        0.10110    0.25940    0.72570    1.000
    O36      O        0.95550    0.66430    0.93810    1.000
    Zn7      Zn       0.14340    0.33542    0.16451    1.000
    O37      O        0.47480    0.11190    0.31950    1.000
    O38      O        0.58900    0.09150    0.42090    1.000
    O39      O        0.27720    0.32120    0.30280    1.000
    C133     C        0.40570    0.10950    0.41300    1.000
    O40      O        0.19030    0.25250    0.21380    1.000
    C134     C        0.42700    0.17420    0.44110    1.000
    C135     C        0.51170    0.04370    0.44980    1.000
    C136     C        0.55430    0.99020    0.49410    1.000
    H109     H        0.59190    0.98390    0.49000    1.000
    C137     C        0.45520    0.05440    0.45620    1.000
    C138     C        0.25450    0.26330    0.27930    1.000
    C139     C        0.37590    0.22300    0.39800    1.000
    H110     H        0.39000    0.26560    0.41710    1.000
    N25      N        0.14260    0.39890    0.25000    1.000
    C140     C        0.52650    0.08550    0.39440    1.000
    C141     C        0.30530    0.21000    0.32780    1.000
    C142     C        0.33500    0.09790    0.34580    1.000
    H111     H        0.31980    0.05530    0.32960    1.000
    C143     C        0.50090    0.19220    0.51410    1.000
    C144     C        0.28480    0.14680    0.30050    1.000
    H112     H        0.23760    0.13690    0.25210    1.000
    N26      N        0.17900    0.46980    0.35950    1.000
    C145     C        0.10740    0.47130    0.30300    1.000
    H113     H        0.07850    0.49890    0.30840    1.000
    C146     C        0.08570    0.42550    0.23730    1.000
    H114     H        0.03860    0.41410    0.19050    1.000
    C147     C        0.23890    0.57060    0.41750    1.000
    H115     H        0.25860    0.56620    0.38210    1.000
    H116     H        0.19300    0.59190    0.37710    1.000
    C148     C        0.19860    0.42590    0.32290    1.000
    H117     H        0.24540    0.41630    0.34640    1.000
    O41      O        0.52130    0.24080    0.48430    1.000
    C149     C        0.28730    0.61100    0.50300    1.000
    H118     H        0.33570    0.59510    0.53620    1.000
    H119     H        0.27350    0.60780    0.54540    1.000
    C150     C        0.22930    0.50840    0.44240    1.000
    H120     H        0.27490    0.48620    0.47980    1.000
    H121     H        0.21240    0.51290    0.48110    1.000
    C151     C        0.28430    0.67670    0.47700    1.000
    H122     H        0.29720    0.68130    0.43380    1.000
    H123     H        0.23730    0.69490    0.44820    1.000
    C152     C        0.38900    0.74800    0.59350    1.000
    H124     H        0.40310    0.75630    0.55460    1.000
    N27      N        0.33870    0.70760    0.57130    1.000
    C153     C        0.33890    0.70640    0.65440    1.000
    H125     H        0.31060    0.68070    0.66340    1.000
    N28      N        0.41820    0.77590    0.67590    1.000
    C154     C        0.38760    0.74930    0.71510    1.000
    H126     H        0.39890    0.75940    0.77430    1.000
    O42      O        0.54450    0.16430    0.56190    1.000
    Zn8      Zn       0.64340    0.83542    0.16451    1.000
    O43      O        0.97480    0.61190    0.31950    1.000
    O44      O        0.08900    0.59150    0.42090    1.000
    O45      O        0.77720    0.82120    0.30280    1.000
    C155     C        0.90570    0.60950    0.41300    1.000
    O46      O        0.69030    0.75250    0.21380    1.000
    C156     C        0.92700    0.67420    0.44110    1.000
    C157     C        0.01170    0.54370    0.44980    1.000
    C158     C        0.05430    0.49020    0.49410    1.000
    H127     H        0.09190    0.48390    0.49000    1.000
    C159     C        0.95520    0.55440    0.45620    1.000
    C160     C        0.75450    0.76330    0.27930    1.000
    C161     C        0.87590    0.72300    0.39800    1.000
    H128     H        0.89000    0.76560    0.41710    1.000
    N29      N        0.64260    0.89890    0.25000    1.000
    C162     C        0.02650    0.58550    0.39440    1.000
    C163     C        0.80530    0.71000    0.32780    1.000
    C164     C        0.83500    0.59790    0.34580    1.000
    H129     H        0.81980    0.55530    0.32960    1.000
    C165     C        0.00090    0.69220    0.51410    1.000
    C166     C        0.78480    0.64680    0.30050    1.000
    H130     H        0.73760    0.63690    0.25210    1.000
    N30      N        0.67900    0.96980    0.35950    1.000
    C167     C        0.60740    0.97130    0.30300    1.000
    H131     H        0.57850    0.99890    0.30840    1.000
    C168     C        0.58570    0.92550    0.23730    1.000
    H132     H        0.53860    0.91410    0.19050    1.000
    C169     C        0.73890    0.07060    0.41750    1.000
    H133     H        0.75860    0.06620    0.38210    1.000
    H134     H        0.69300    0.09190    0.37710    1.000
    C170     C        0.69860    0.92590    0.32290    1.000
    H135     H        0.74540    0.91630    0.34640    1.000
    O47      O        0.02130    0.74080    0.48430    1.000
    C171     C        0.78730    0.11100    0.50300    1.000
    H136     H        0.83570    0.09510    0.53620    1.000
    H137     H        0.77350    0.10780    0.54540    1.000
    C172     C        0.72930    0.00840    0.44240    1.000
    H138     H        0.77490    0.98620    0.47980    1.000
    H139     H        0.71240    0.01290    0.48110    1.000
    C173     C        0.78430    0.17670    0.47700    1.000
    H140     H        0.79720    0.18130    0.43380    1.000
    H141     H        0.73730    0.19490    0.44820    1.000
    C174     C        0.88900    0.24800    0.59350    1.000
    H142     H        0.90310    0.25630    0.55460    1.000
    N31      N        0.83870    0.20760    0.57130    1.000
    C175     C        0.83890    0.20640    0.65440    1.000
    H143     H        0.81060    0.18070    0.66340    1.000
    N32      N        0.91820    0.27590    0.67590    1.000
    C176     C        0.88760    0.24930    0.71510    1.000
    H144     H        0.89890    0.25940    0.77430    1.000
    O48      O        0.04450    0.66430    0.56190    1.000
    Zn9      Zn       0.50000    0.83744    0.75000    1.000
    Zn10     Zn       0.00000    0.33744    0.75000    1.000
    Zn11     Zn       0.50000    0.16256    0.25000    1.000
    Zn12     Zn       0.00000    0.66256    0.25000    1.000
