# CIF file generated by openbabel 3.1.0, see https://openbabel.org
data_I
_chemical_name_common 'image0'
_cell_length_a 10.509
_cell_length_b 11.48
_cell_length_c 13.426
_cell_angle_alpha 69.137
_cell_angle_beta 78.671
_cell_angle_gamma 63.564
_space_group_name_H-M_alt 'P 1'
_space_group_name_Hall 'P 1'
loop_
    _symmetry_equiv_pos_as_xyz
    x,y,z
loop_
    _atom_site_label
    _atom_site_type_symbol
    _atom_site_fract_x
    _atom_site_fract_y
    _atom_site_fract_z
    _atom_site_occupancy
    U1       U        0.62233    0.71400    0.83603    1.000
    Yb1      Yb       0.59779    0.23117    0.75074    1.000
    C1       C        0.99700    0.34260    0.85230    1.000
    C2       C        0.10960    0.31300    0.91000    1.000
    H1       H        0.09440    0.35910    0.95880    1.000
    C3       C        0.24570    0.21490    0.89580    1.000
    C4       C        0.26560    0.14270    0.82330    1.000
    C5       C        0.14670    0.16500    0.77320    1.000
    H2       H        0.15740    0.11210    0.73080    1.000
    C6       C        0.01230    0.26680    0.78720    1.000
    C7       C        0.62870    0.00190    0.44800    1.000
    H3       H        0.71450    0.00170    0.41330    1.000
    C8       C        0.61650    0.87620    0.50490    1.000
    C9       C        0.48620    0.87680    0.55560    1.000
    C10      C        0.86240    0.46250    0.85740    1.000
    C11      C        0.36000    0.19460    0.95660    1.000
    C12      C        0.40750    0.04200    0.79500    1.000
    C13      C        0.89220    0.29290    0.72460    1.000
    C14      C        0.46550    0.74920    0.62010    1.000
    C15      C        0.74380    0.74750    0.50610    1.000
    O1       O        0.85230    0.53440    0.91400    1.000
    O2       O        0.76140    0.49710    0.79940    1.000
    O3       O        0.81210    0.23420    0.77260    1.000
    O4       O        0.88540    0.36250    0.62620    1.000
    O5       O        0.41530    0.92190    0.81700    1.000
    O6       O        0.50460    0.07920    0.75530    1.000
    O7       O        0.48270    0.17990    0.91540    1.000
    O8       O        0.32840    0.19510    0.05120    1.000
    O9       O        0.49840    0.69440    0.71900    1.000
    O10      O        0.40950    0.70260    0.57920    1.000
    O11      O        0.73470    0.63410    0.53340    1.000
    O12      O        0.86340    0.74830    0.48140    1.000
    U2       U        0.37767    0.28600    0.16397    1.000
    Yb2      Yb       0.40221    0.76883    0.24926    1.000
    C16      C        0.00300    0.65740    0.14770    1.000
    C17      C        0.89040    0.68700    0.09000    1.000
    H4       H        0.90560    0.64090    0.04120    1.000
    C18      C        0.75430    0.78510    0.10420    1.000
    C19      C        0.73440    0.85730    0.17670    1.000
    C20      C        0.85330    0.83500    0.22680    1.000
    H5       H        0.84260    0.88790    0.26920    1.000
    C21      C        0.98770    0.73320    0.21280    1.000
    C22      C        0.37130    0.99810    0.55200    1.000
    H6       H        0.28550    0.99830    0.58670    1.000
    C23      C        0.38350    0.12380    0.49510    1.000
    C24      C        0.51380    0.12320    0.44440    1.000
    C25      C        0.13760    0.53750    0.14260    1.000
    C26      C        0.64000    0.80540    0.04340    1.000
    C27      C        0.59250    0.95800    0.20500    1.000
    C28      C        0.10780    0.70710    0.27540    1.000
    C29      C        0.53450    0.25080    0.37990    1.000
    C30      C        0.25620    0.25250    0.49390    1.000
    O13      O        0.14770    0.46560    0.08600    1.000
    O14      O        0.23860    0.50290    0.20060    1.000
    O15      O        0.18790    0.76580    0.22740    1.000
    O16      O        0.11460    0.63750    0.37380    1.000
    O17      O        0.58470    0.07810    0.18300    1.000
    O18      O        0.49540    0.92080    0.24470    1.000
    O19      O        0.51730    0.82010    0.08460    1.000
    O20      O        0.67160    0.80490    0.94880    1.000
    O21      O        0.50160    0.30560    0.28100    1.000
    O22      O        0.59050    0.29740    0.42080    1.000
    O23      O        0.26530    0.36590    0.46660    1.000
    O24      O        0.13660    0.25170    0.51860    1.000
    U3       U        0.00000    0.50000    0.50000    1.000
