# CIF file generated by openbabel 3.1.0, see https://openbabel.org
data_I
_chemical_name_common 'image0'
_cell_length_a 26.533
_cell_length_b 26.533
_cell_length_c 4.5396
_cell_angle_alpha 90
_cell_angle_beta 90
_cell_angle_gamma 90
_space_group_name_H-M_alt 'P 1'
_space_group_name_Hall 'P 1'
loop_
    _symmetry_equiv_pos_as_xyz
    x,y,z
loop_
    _atom_site_label
    _atom_site_type_symbol
    _atom_site_fract_x
    _atom_site_fract_y
    _atom_site_fract_z
    _atom_site_occupancy
    Zn1      Zn       0.26864    0.21554    0.94020    1.000
    O1       O        0.22680    0.27800    0.00100    1.000
    H1       H        0.20500    0.28950    0.88350    1.000
    N1       N        0.24050    0.14880    0.98600    1.000
    C1       C        0.25640    0.11270    0.15800    1.000
    H2       H        0.28180    0.11670    0.29720    1.000
    N2       N        0.23160    0.06880    0.10900    1.000
    C2       C        0.20040    0.12460    0.80600    1.000
    O2       O        0.26610    0.83730    0.48800    1.000
    C3       C        0.17160    0.14710    0.58900    1.000
    H3       H        0.17610    0.18080    0.54010    1.000
    O3       O        0.33840    0.86690    0.44100    1.000
    C4       C        0.13550    0.11760    0.44600    1.000
    C5       C        0.10580    0.13830    0.22700    1.000
    H4       H        0.11010    0.17200    0.17760    1.000
    C6       C        0.06960    0.11000    0.07900    1.000
    H5       H        0.04960    0.12390    0.93130    1.000
    C7       C        0.06510    0.05990    0.16300    1.000
    H6       H        0.04140    0.03970    0.06900    1.000
    C8       C        0.09480    0.03930    0.38300    1.000
    H7       H        0.09020    0.00560    0.43290    1.000
    C9       C        0.13100    0.06700    0.53100    1.000
    C10      C        0.16010    0.04480    0.74900    1.000
    H8       H        0.15600    0.01100    0.79820    1.000
    C11      C        0.19540    0.07460    0.89000    1.000
    C12      C        0.24490    0.02020    0.23300    1.000
    C13      C        0.26880    0.92630    0.44200    1.000
    C14      C        0.26510    0.01420    0.51100    1.000
    H9       H        0.27060    0.04260    0.62740    1.000
    C15      C        0.27730    0.96750    0.62100    1.000
    H10      H        0.29080    0.96380    0.80880    1.000
    C16      C        0.24860    0.93010    0.16300    1.000
    H11      H        0.24310    0.90170    0.04790    1.000
    C17      C        0.23690    0.97770    0.06200    1.000
    H12      H        0.22340    0.98140    0.87410    1.000
    C18      C        0.29140    0.87490    0.50800    1.000
    O4       O        0.27600    0.87100    0.77300    1.000
    C19      C        0.29400    0.00950    0.31300    1.000
    H13      H        0.31860    0.03430    0.29520    1.000
    C20      C        0.30750    0.96200    0.42100    1.000
    H14      H        0.34040    0.95440    0.47490    1.000
    C21      C        0.21820    0.93340    0.36700    1.000
    H15      H        0.19360    0.90870    0.38370    1.000
    C22      C        0.20900    0.98210    0.26200    1.000
    H16      H        0.17620    0.98980    0.20730    1.000
    Zn2      Zn       0.76864    0.71554    0.44020    1.000
    O5       O        0.72680    0.77800    0.50100    1.000
    H17      H        0.70500    0.78950    0.38350    1.000
    N3       N        0.74050    0.64880    0.48600    1.000
    C23      C        0.75640    0.61270    0.65800    1.000
    H18      H        0.78180    0.61670    0.79720    1.000
    N4       N        0.73160    0.56880    0.60900    1.000
    C24      C        0.70040    0.62460    0.30600    1.000
    O6       O        0.76610    0.33730    0.98800    1.000
    C25      C        0.67160    0.64710    0.08900    1.000
    H19      H        0.67610    0.68080    0.04010    1.000
    O7       O        0.83840    0.36690    0.94100    1.000
    C26      C        0.63550    0.61760    0.94600    1.000
    C27      C        0.60580    0.63830    0.72700    1.000
    H20      H        0.61010    0.67200    0.67760    1.000
    C28      C        0.56960    0.61000    0.57900    1.000
    H21      H        0.54960    0.62390    0.43130    1.000
    C29      C        0.56510    0.55990    0.66300    1.000
    H22      H        0.54140    0.53970    0.56900    1.000
    C30      C        0.59480    0.53930    0.88300    1.000
    H23      H        0.59020    0.50560    0.93290    1.000
    C31      C        0.63100    0.56700    0.03100    1.000
    C32      C        0.66010    0.54480    0.24900    1.000
    H24      H        0.65600    0.51100    0.29820    1.000
    C33      C        0.69540    0.57460    0.39000    1.000
    C34      C        0.74490    0.52020    0.73300    1.000
    C35      C        0.76880    0.42630    0.94200    1.000
    C36      C        0.76510    0.51420    0.01100    1.000
    H25      H        0.77060    0.54260    0.12740    1.000
    C37      C        0.77730    0.46750    0.12100    1.000
    H26      H        0.79080    0.46380    0.30880    1.000
    C38      C        0.74860    0.43010    0.66300    1.000
    H27      H        0.74310    0.40170    0.54790    1.000
    C39      C        0.73690    0.47770    0.56200    1.000
    H28      H        0.72340    0.48140    0.37410    1.000
    C40      C        0.79140    0.37490    0.00800    1.000
    O8       O        0.77600    0.37100    0.27300    1.000
    C41      C        0.79400    0.50950    0.81300    1.000
    H29      H        0.81860    0.53430    0.79520    1.000
    C42      C        0.80750    0.46200    0.92100    1.000
    H30      H        0.84040    0.45440    0.97490    1.000
    C43      C        0.71820    0.43340    0.86700    1.000
    H31      H        0.69360    0.40870    0.88370    1.000
    C44      C        0.70900    0.48210    0.76200    1.000
    H32      H        0.67620    0.48980    0.70730    1.000
    Zn3      Zn       0.73136    0.78446    0.94020    1.000
    O9       O        0.77320    0.72200    0.00100    1.000
    H33      H        0.79500    0.71050    0.88350    1.000
    N5       N        0.75950    0.85120    0.98600    1.000
    C45      C        0.74360    0.88730    0.15800    1.000
    H34      H        0.71820    0.88330    0.29720    1.000
    N6       N        0.76840    0.93120    0.10900    1.000
    C46      C        0.79960    0.87540    0.80600    1.000
    O10      O        0.73390    0.16270    0.48800    1.000
    C47      C        0.82840    0.85290    0.58900    1.000
    H35      H        0.82390    0.81920    0.54010    1.000
    O11      O        0.66160    0.13310    0.44100    1.000
    C48      C        0.86450    0.88240    0.44600    1.000
    C49      C        0.89420    0.86170    0.22700    1.000
    H36      H        0.88990    0.82800    0.17760    1.000
    C50      C        0.93040    0.89000    0.07900    1.000
    H37      H        0.95040    0.87610    0.93130    1.000
    C51      C        0.93490    0.94010    0.16300    1.000
    H38      H        0.95860    0.96030    0.06900    1.000
    C52      C        0.90520    0.96070    0.38300    1.000
    H39      H        0.90980    0.99440    0.43290    1.000
    C53      C        0.86900    0.93300    0.53100    1.000
    C54      C        0.83990    0.95520    0.74900    1.000
    H40      H        0.84400    0.98900    0.79820    1.000
    C55      C        0.80460    0.92540    0.89000    1.000
    C56      C        0.75510    0.97980    0.23300    1.000
    C57      C        0.73120    0.07370    0.44200    1.000
    C58      C        0.73490    0.98580    0.51100    1.000
    H41      H        0.72940    0.95740    0.62740    1.000
    C59      C        0.72270    0.03250    0.62100    1.000
    H42      H        0.70920    0.03620    0.80880    1.000
    C60      C        0.75140    0.06990    0.16300    1.000
    H43      H        0.75690    0.09830    0.04790    1.000
    C61      C        0.76310    0.02230    0.06200    1.000
    H44      H        0.77660    0.01860    0.87410    1.000
    C62      C        0.70860    0.12510    0.50800    1.000
    O12      O        0.72400    0.12900    0.77300    1.000
    C63      C        0.70600    0.99050    0.31300    1.000
    H45      H        0.68140    0.96570    0.29520    1.000
    C64      C        0.69250    0.03800    0.42100    1.000
    H46      H        0.65960    0.04560    0.47490    1.000
    C65      C        0.78180    0.06660    0.36700    1.000
    H47      H        0.80640    0.09130    0.38370    1.000
    C66      C        0.79100    0.01790    0.26200    1.000
    H48      H        0.82380    0.01020    0.20730    1.000
    Zn4      Zn       0.23136    0.28446    0.44020    1.000
    O13      O        0.27320    0.22200    0.50100    1.000
    H49      H        0.29500    0.21050    0.38350    1.000
    N7       N        0.25950    0.35120    0.48600    1.000
    C67      C        0.24360    0.38730    0.65800    1.000
    H50      H        0.21820    0.38330    0.79720    1.000
    N8       N        0.26840    0.43120    0.60900    1.000
    C68      C        0.29960    0.37540    0.30600    1.000
    O14      O        0.23390    0.66270    0.98800    1.000
    C69      C        0.32840    0.35290    0.08900    1.000
    H51      H        0.32390    0.31920    0.04010    1.000
    O15      O        0.16160    0.63310    0.94100    1.000
    C70      C        0.36450    0.38240    0.94600    1.000
    C71      C        0.39420    0.36170    0.72700    1.000
    H52      H        0.38990    0.32800    0.67760    1.000
    C72      C        0.43040    0.39000    0.57900    1.000
    H53      H        0.45040    0.37610    0.43130    1.000
    C73      C        0.43490    0.44010    0.66300    1.000
    H54      H        0.45860    0.46030    0.56900    1.000
    C74      C        0.40520    0.46070    0.88300    1.000
    H55      H        0.40980    0.49440    0.93290    1.000
    C75      C        0.36900    0.43300    0.03100    1.000
    C76      C        0.33990    0.45520    0.24900    1.000
    H56      H        0.34400    0.48900    0.29820    1.000
    C77      C        0.30460    0.42540    0.39000    1.000
    C78      C        0.25510    0.47980    0.73300    1.000
    C79      C        0.23120    0.57370    0.94200    1.000
    C80      C        0.23490    0.48580    0.01100    1.000
    H57      H        0.22940    0.45740    0.12740    1.000
    C81      C        0.22270    0.53250    0.12100    1.000
    H58      H        0.20920    0.53620    0.30880    1.000
    C82      C        0.25140    0.56990    0.66300    1.000
    H59      H        0.25690    0.59830    0.54790    1.000
    C83      C        0.26310    0.52230    0.56200    1.000
    H60      H        0.27660    0.51860    0.37410    1.000
    C84      C        0.20860    0.62510    0.00800    1.000
    O16      O        0.22400    0.62900    0.27300    1.000
    C85      C        0.20600    0.49050    0.81300    1.000
    H61      H        0.18140    0.46570    0.79520    1.000
    C86      C        0.19250    0.53800    0.92100    1.000
    H62      H        0.15960    0.54560    0.97490    1.000
    C87      C        0.28180    0.56660    0.86700    1.000
    H63      H        0.30640    0.59130    0.88370    1.000
    C88      C        0.29100    0.51790    0.76200    1.000
    H64      H        0.32380    0.51020    0.70730    1.000
    Zn5      Zn       0.21554    0.73136    0.05980    1.000
    O17      O        0.27800    0.77320    0.99900    1.000
    H65      H        0.28950    0.79500    0.11650    1.000
    N9       N        0.14880    0.75950    0.01400    1.000
    C89      C        0.11270    0.74360    0.84200    1.000
    H66      H        0.11670    0.71820    0.70280    1.000
    N10      N        0.06880    0.76840    0.89100    1.000
    C90      C        0.12460    0.79960    0.19400    1.000
    O18      O        0.83730    0.73390    0.51200    1.000
    C91      C        0.14710    0.82840    0.41100    1.000
    H67      H        0.18080    0.82390    0.45990    1.000
    O19      O        0.86690    0.66160    0.55900    1.000
    C92      C        0.11760    0.86450    0.55400    1.000
    C93      C        0.13830    0.89420    0.77300    1.000
    H68      H        0.17200    0.88990    0.82240    1.000
    C94      C        0.11000    0.93040    0.92100    1.000
    H69      H        0.12390    0.95040    0.06870    1.000
    C95      C        0.05990    0.93490    0.83700    1.000
    H70      H        0.03970    0.95860    0.93100    1.000
    C96      C        0.03930    0.90520    0.61700    1.000
    H71      H        0.00560    0.90980    0.56710    1.000
    C97      C        0.06700    0.86900    0.46900    1.000
    C98      C        0.04480    0.83990    0.25100    1.000
    H72      H        0.01100    0.84400    0.20180    1.000
    C99      C        0.07460    0.80460    0.11000    1.000
    C100     C        0.02020    0.75510    0.76700    1.000
    C101     C        0.92630    0.73120    0.55800    1.000
    C102     C        0.01420    0.73490    0.48900    1.000
    H73      H        0.04260    0.72940    0.37260    1.000
    C103     C        0.96750    0.72270    0.37900    1.000
    H74      H        0.96380    0.70920    0.19120    1.000
    C104     C        0.93010    0.75140    0.83700    1.000
    H75      H        0.90170    0.75690    0.95210    1.000
    C105     C        0.97770    0.76310    0.93800    1.000
    H76      H        0.98140    0.77660    0.12590    1.000
    C106     C        0.87490    0.70860    0.49200    1.000
    O20      O        0.87100    0.72400    0.22700    1.000
    C107     C        0.00950    0.70600    0.68700    1.000
    H77      H        0.03430    0.68140    0.70480    1.000
    C108     C        0.96200    0.69250    0.57900    1.000
    H78      H        0.95440    0.65960    0.52510    1.000
    C109     C        0.93340    0.78180    0.63300    1.000
    H79      H        0.90870    0.80640    0.61630    1.000
    C110     C        0.98210    0.79100    0.73800    1.000
    H80      H        0.98980    0.82380    0.79270    1.000
    Zn6      Zn       0.71554    0.23136    0.55980    1.000
    O21      O        0.77800    0.27320    0.49900    1.000
    H81      H        0.78950    0.29500    0.61650    1.000
    N11      N        0.64880    0.25950    0.51400    1.000
    C111     C        0.61270    0.24360    0.34200    1.000
    H82      H        0.61670    0.21820    0.20280    1.000
    N12      N        0.56880    0.26840    0.39100    1.000
    C112     C        0.62460    0.29960    0.69400    1.000
    O22      O        0.33730    0.23390    0.01200    1.000
    C113     C        0.64710    0.32840    0.91100    1.000
    H83      H        0.68080    0.32390    0.95990    1.000
    O23      O        0.36690    0.16160    0.05900    1.000
    C114     C        0.61760    0.36450    0.05400    1.000
    C115     C        0.63830    0.39420    0.27300    1.000
    H84      H        0.67200    0.38990    0.32240    1.000
    C116     C        0.61000    0.43040    0.42100    1.000
    H85      H        0.62390    0.45040    0.56870    1.000
    C117     C        0.55990    0.43490    0.33700    1.000
    H86      H        0.53970    0.45860    0.43100    1.000
    C118     C        0.53930    0.40520    0.11700    1.000
    H87      H        0.50560    0.40980    0.06710    1.000
    C119     C        0.56700    0.36900    0.96900    1.000
    C120     C        0.54480    0.33990    0.75100    1.000
    H88      H        0.51100    0.34400    0.70180    1.000
    C121     C        0.57460    0.30460    0.61000    1.000
    C122     C        0.52020    0.25510    0.26700    1.000
    C123     C        0.42630    0.23120    0.05800    1.000
    C124     C        0.51420    0.23490    0.98900    1.000
    H89      H        0.54260    0.22940    0.87260    1.000
    C125     C        0.46750    0.22270    0.87900    1.000
    H90      H        0.46380    0.20920    0.69120    1.000
    C126     C        0.43010    0.25140    0.33700    1.000
    H91      H        0.40170    0.25690    0.45210    1.000
    C127     C        0.47770    0.26310    0.43800    1.000
    H92      H        0.48140    0.27660    0.62590    1.000
    C128     C        0.37490    0.20860    0.99200    1.000
    O24      O        0.37100    0.22400    0.72700    1.000
    C129     C        0.50950    0.20600    0.18700    1.000
    H93      H        0.53430    0.18140    0.20480    1.000
    C130     C        0.46200    0.19250    0.07900    1.000
    H94      H        0.45440    0.15960    0.02510    1.000
    C131     C        0.43340    0.28180    0.13300    1.000
    H95      H        0.40870    0.30640    0.11630    1.000
    C132     C        0.48210    0.29100    0.23800    1.000
    H96      H        0.48980    0.32380    0.29270    1.000
    Zn7      Zn       0.78446    0.26864    0.05980    1.000
    O25      O        0.72200    0.22680    0.99900    1.000
    H97      H        0.71050    0.20500    0.11650    1.000
    N13      N        0.85120    0.24050    0.01400    1.000
    C133     C        0.88730    0.25640    0.84200    1.000
    H98      H        0.88330    0.28180    0.70280    1.000
    N14      N        0.93120    0.23160    0.89100    1.000
    C134     C        0.87540    0.20040    0.19400    1.000
    O26      O        0.16270    0.26610    0.51200    1.000
    C135     C        0.85290    0.17160    0.41100    1.000
    H99      H        0.81920    0.17610    0.45990    1.000
    O27      O        0.13310    0.33840    0.55900    1.000
    C136     C        0.88240    0.13550    0.55400    1.000
    C137     C        0.86170    0.10580    0.77300    1.000
    H100     H        0.82800    0.11010    0.82240    1.000
    C138     C        0.89000    0.06960    0.92100    1.000
    H101     H        0.87610    0.04960    0.06870    1.000
    C139     C        0.94010    0.06510    0.83700    1.000
    H102     H        0.96030    0.04140    0.93100    1.000
    C140     C        0.96070    0.09480    0.61700    1.000
    H103     H        0.99440    0.09020    0.56710    1.000
    C141     C        0.93300    0.13100    0.46900    1.000
    C142     C        0.95520    0.16010    0.25100    1.000
    H104     H        0.98900    0.15600    0.20180    1.000
    C143     C        0.92540    0.19540    0.11000    1.000
    C144     C        0.97980    0.24490    0.76700    1.000
    C145     C        0.07370    0.26880    0.55800    1.000
    C146     C        0.98580    0.26510    0.48900    1.000
    H105     H        0.95740    0.27060    0.37260    1.000
    C147     C        0.03250    0.27730    0.37900    1.000
    H106     H        0.03620    0.29080    0.19120    1.000
    C148     C        0.06990    0.24860    0.83700    1.000
    H107     H        0.09830    0.24310    0.95210    1.000
    C149     C        0.02230    0.23690    0.93800    1.000
    H108     H        0.01860    0.22340    0.12590    1.000
    C150     C        0.12510    0.29140    0.49200    1.000
    O28      O        0.12900    0.27600    0.22700    1.000
    C151     C        0.99050    0.29400    0.68700    1.000
    H109     H        0.96570    0.31860    0.70480    1.000
    C152     C        0.03800    0.30750    0.57900    1.000
    H110     H        0.04560    0.34040    0.52510    1.000
    C153     C        0.06660    0.21820    0.63300    1.000
    H111     H        0.09130    0.19360    0.61630    1.000
    C154     C        0.01790    0.20900    0.73800    1.000
    H112     H        0.01020    0.17620    0.79270    1.000
    Zn8      Zn       0.28446    0.76864    0.55980    1.000
    O29      O        0.22200    0.72680    0.49900    1.000
    H113     H        0.21050    0.70500    0.61650    1.000
    N15      N        0.35120    0.74050    0.51400    1.000
    C155     C        0.38730    0.75640    0.34200    1.000
    H114     H        0.38330    0.78180    0.20280    1.000
    N16      N        0.43120    0.73160    0.39100    1.000
    C156     C        0.37540    0.70040    0.69400    1.000
    O30      O        0.66270    0.76610    0.01200    1.000
    C157     C        0.35290    0.67160    0.91100    1.000
    H115     H        0.31920    0.67610    0.95990    1.000
    O31      O        0.63310    0.83840    0.05900    1.000
    C158     C        0.38240    0.63550    0.05400    1.000
    C159     C        0.36170    0.60580    0.27300    1.000
    H116     H        0.32800    0.61010    0.32240    1.000
    C160     C        0.39000    0.56960    0.42100    1.000
    H117     H        0.37610    0.54960    0.56870    1.000
    C161     C        0.44010    0.56510    0.33700    1.000
    H118     H        0.46030    0.54140    0.43100    1.000
    C162     C        0.46070    0.59480    0.11700    1.000
    H119     H        0.49440    0.59020    0.06710    1.000
    C163     C        0.43300    0.63100    0.96900    1.000
    C164     C        0.45520    0.66010    0.75100    1.000
    H120     H        0.48900    0.65600    0.70180    1.000
    C165     C        0.42540    0.69540    0.61000    1.000
    C166     C        0.47980    0.74490    0.26700    1.000
    C167     C        0.57370    0.76880    0.05800    1.000
    C168     C        0.48580    0.76510    0.98900    1.000
    H121     H        0.45740    0.77060    0.87260    1.000
    C169     C        0.53250    0.77730    0.87900    1.000
    H122     H        0.53620    0.79080    0.69120    1.000
    C170     C        0.56990    0.74860    0.33700    1.000
    H123     H        0.59830    0.74310    0.45210    1.000
    C171     C        0.52230    0.73690    0.43800    1.000
    H124     H        0.51860    0.72340    0.62590    1.000
    C172     C        0.62510    0.79140    0.99200    1.000
    O32      O        0.62900    0.77600    0.72700    1.000
    C173     C        0.49050    0.79400    0.18700    1.000
    H125     H        0.46570    0.81860    0.20480    1.000
    C174     C        0.53800    0.80750    0.07900    1.000
    H126     H        0.54560    0.84040    0.02510    1.000
    C175     C        0.56660    0.71820    0.13300    1.000
    H127     H        0.59130    0.69360    0.11630    1.000
    C176     C        0.51790    0.70900    0.23800    1.000
    H128     H        0.51020    0.67620    0.29270    1.000
