# CIF file generated by openbabel 3.1.0, see https://openbabel.org
data_I
_chemical_name_common 'TERFUT_clean'
_cell_length_a 14.0869
_cell_length_b 15.1333
_cell_length_c 15.1402
_cell_angle_alpha 86.517
_cell_angle_beta 87.286
_cell_angle_gamma 86.896
_space_group_name_H-M_alt 'P 1'
_space_group_name_Hall 'P 1'
loop_
    _symmetry_equiv_pos_as_xyz
    x,y,z
loop_
    _atom_site_label
    _atom_site_type_symbol
    _atom_site_fract_x
    _atom_site_fract_y
    _atom_site_fract_z
    _atom_site_occupancy
    Zn1      Zn       0.90400    0.60357    0.83905    1.000
    Zn2      Zn       0.69397    0.61283    0.84721    1.000
    H1       H        0.21960    0.60560    0.97530    1.000
    H2       H        0.07080    0.62010    0.71190    1.000
    H3       H        0.23380    0.62310    0.71030    1.000
    H4       H        0.05710    0.60200    0.97060    1.000
    H5       H        0.65810    0.62620    0.28700    1.000
    H6       H        0.65450    0.62610    0.13690    1.000
    H7       H        0.93860    0.59840    0.12090    1.000
    H8       H        0.67020    0.64560    0.56390    1.000
    H9       H        0.66640    0.64310    0.41430    1.000
    H10      H        0.93900    0.57810    0.40040    1.000
    H11      H        0.94360    0.57650    0.55030    1.000
    H12      H        0.66160    0.32820    0.85120    1.000
    H13      H        0.65410    0.90500    0.84940    1.000
    H14      H        0.94040    0.31370    0.82720    1.000
    H15      H        0.93810    0.16570    0.81330    1.000
    H16      H        0.93010    0.88350    0.79540    1.000
    H17      H        0.93360    0.03520    0.79070    1.000
    H18      H        0.53730    0.67760    0.73170    1.000
    H19      H        0.52930    0.54660    0.95960    1.000
    H20      H        0.36770    0.54630    0.95990    1.000
    H21      H        0.37470    0.67750    0.72530    1.000
    Rh1      Rh       0.62210    0.12180    0.84360    1.000
    C1       C        0.24570    0.61270    0.84300    1.000
    C2       C        0.19097    0.60780    0.92100    1.000
    C3       C        0.80100    0.33931    0.83800    1.000
    C4       C        0.10110    0.61670    0.76532    1.000
    C5       C        0.79570    0.61161    0.11145    1.000
    C6       C        0.80660    0.60890    0.57487    1.000
    C7       C        0.19916    0.61830    0.76400    1.000
    C8       C        0.09314    0.60620    0.91760    1.000
    C9       C        0.79427    0.60910    0.01316    1.000
    C10      C        0.80202    0.43704    0.84571    1.000
    C11      C        0.71470    0.62070    0.25319    1.000
    C12      C        0.78870    0.77816    0.83230    1.000
    C13      C        0.71280    0.62030    0.16370    1.000
    C14      C        0.88170    0.60420    0.15432    1.000
    C15      C        0.80786    0.60790    0.67356    1.000
    C16      C        0.35144    0.61190    0.84399    1.000
    C17      C        0.80070    0.61280    0.29440    1.000
    C18      C        0.80280    0.61150    0.39180    1.000
    C19      C        0.72570    0.63030    0.53140    1.000
    C20      C        0.79080    0.87710    0.82660    1.000
    C21      C        0.72360    0.63010    0.44160    1.000
    C22      C        0.88340    0.59150    0.43360    1.000
    C23      C        0.88620    0.59030    0.52360    1.000
    C24      C        0.71890    0.29560    0.84330    1.000
    C25      C        0.71230    0.93070    0.83890    1.000
    C26      C        0.88210    0.28750    0.82860    1.000
    C27      C        0.71670    0.20630    0.83760    1.000
    C28      C        0.79810    0.15730    0.82500    1.000
    C29      C        0.79580    0.05970    0.82050    1.000
    C30      C        0.88100    0.19860    0.82110    1.000
    C31      C        0.87450    0.91760    0.80690    1.000
    C32      C        0.87640    0.00830    0.80410    1.000
    C33      C        0.50250    0.65000    0.77830    1.000
    C34      C        0.49820    0.57380    0.91160    1.000
    C35      C        0.40060    0.57350    0.91190    1.000
    C36      C        0.40460    0.65090    0.77430    1.000
    N1       N        0.04798    0.61032    0.84197    1.000
    N2       N        0.54933    0.61109    0.84627    1.000
    N3       N        0.88390    0.60520    0.24409    1.000
    N4       N        0.71410    0.02060    0.83670    1.000
    O1       O        0.87314    0.60592    0.97089    1.000
    O2       O        0.72983    0.61621    0.71541    1.000
    O3       O        0.71503    0.60830    0.97927    1.000
    O4       O        0.72285    0.47907    0.84960    1.000
    O5       O        0.88791    0.59877    0.70721    1.000
    O6       O        0.88119    0.47062    0.84777    1.000
    O7       O        0.70905    0.74517    0.84335    1.000
    O8       O        0.86700    0.73559    0.82582    1.000
    Zn3      Zn       0.09600    0.39643    0.16095    1.000
    Zn4      Zn       0.30603    0.38717    0.15279    1.000
    H22      H        0.78040    0.39440    0.02470    1.000
    H23      H        0.92920    0.37990    0.28810    1.000
    H24      H        0.76620    0.37690    0.28970    1.000
    H25      H        0.94290    0.39800    0.02940    1.000
    H26      H        0.34190    0.37380    0.71300    1.000
    H27      H        0.34550    0.37390    0.86310    1.000
    H28      H        0.06140    0.40160    0.87910    1.000
    H29      H        0.32980    0.35440    0.43610    1.000
    H30      H        0.33360    0.35690    0.58570    1.000
    H31      H        0.06100    0.42190    0.59960    1.000
    H32      H        0.05640    0.42350    0.44970    1.000
    H33      H        0.33840    0.67180    0.14880    1.000
    H34      H        0.34590    0.09500    0.15060    1.000
    H35      H        0.05960    0.68630    0.17280    1.000
    H36      H        0.06190    0.83430    0.18670    1.000
    H37      H        0.06990    0.11650    0.20460    1.000
    H38      H        0.06640    0.96480    0.20930    1.000
    H39      H        0.46270    0.32240    0.26830    1.000
    H40      H        0.47070    0.45340    0.04040    1.000
    H41      H        0.63230    0.45370    0.04010    1.000
    H42      H        0.62530    0.32250    0.27470    1.000
    Rh2      Rh       0.37790    0.87820    0.15640    1.000
    C37      C        0.75430    0.38730    0.15700    1.000
    C38      C        0.80903    0.39220    0.07900    1.000
    C39      C        0.19900    0.66069    0.16200    1.000
    C40      C        0.89890    0.38330    0.23468    1.000
    C41      C        0.20430    0.38839    0.88855    1.000
    C42      C        0.19340    0.39110    0.42513    1.000
    C43      C        0.80084    0.38170    0.23600    1.000
    C44      C        0.90686    0.39380    0.08240    1.000
    C45      C        0.20573    0.39090    0.98684    1.000
    C46      C        0.19798    0.56296    0.15429    1.000
    C47      C        0.28530    0.37930    0.74681    1.000
    C48      C        0.21130    0.22184    0.16770    1.000
    C49      C        0.28720    0.37970    0.83630    1.000
    C50      C        0.11830    0.39580    0.84568    1.000
    C51      C        0.19214    0.39210    0.32644    1.000
    C52      C        0.64856    0.38810    0.15601    1.000
    C53      C        0.19930    0.38720    0.70560    1.000
    C54      C        0.19720    0.38850    0.60820    1.000
    C55      C        0.27430    0.36970    0.46860    1.000
    C56      C        0.20920    0.12290    0.17340    1.000
    C57      C        0.27640    0.36990    0.55840    1.000
    C58      C        0.11660    0.40850    0.56640    1.000
    C59      C        0.11380    0.40970    0.47640    1.000
    C60      C        0.28110    0.70440    0.15670    1.000
    C61      C        0.28770    0.06930    0.16110    1.000
    C62      C        0.11790    0.71250    0.17140    1.000
    C63      C        0.28330    0.79370    0.16240    1.000
    C64      C        0.20190    0.84270    0.17500    1.000
    C65      C        0.20420    0.94030    0.17950    1.000
    C66      C        0.11900    0.80140    0.17890    1.000
    C67      C        0.12550    0.08240    0.19310    1.000
    C68      C        0.12360    0.99170    0.19590    1.000
    C69      C        0.49750    0.35000    0.22170    1.000
    C70      C        0.50180    0.42620    0.08840    1.000
    C71      C        0.59940    0.42650    0.08810    1.000
    C72      C        0.59540    0.34910    0.22570    1.000
    N5       N        0.95202    0.38968    0.15803    1.000
    N6       N        0.45067    0.38891    0.15373    1.000
    N7       N        0.11610    0.39480    0.75591    1.000
    N8       N        0.28590    0.97940    0.16330    1.000
    O9       O        0.12686    0.39408    0.02911    1.000
    O10      O        0.27017    0.38379    0.28459    1.000
    O11      O        0.28497    0.39170    0.02073    1.000
    O12      O        0.27715    0.52093    0.15040    1.000
    O13      O        0.11209    0.40123    0.29279    1.000
    O14      O        0.11881    0.52938    0.15223    1.000
    O15      O        0.29095    0.25483    0.15665    1.000
    O16      O        0.13300    0.26441    0.17418    1.000
