# CIF file generated by openbabel 3.1.0, see https://openbabel.org
data_I
_chemical_name_common 'image0'
_cell_length_a 40.906
_cell_length_b 40.906
_cell_length_c 17.295
_cell_angle_alpha 90
_cell_angle_beta 90
_cell_angle_gamma 90
_space_group_name_H-M_alt 'P 1'
_space_group_name_Hall 'P 1'
loop_
    _symmetry_equiv_pos_as_xyz
    x,y,z
loop_
    _atom_site_label
    _atom_site_type_symbol
    _atom_site_fract_x
    _atom_site_fract_y
    _atom_site_fract_z
    _atom_site_occupancy
    Mn1      Mn       0.57646    0.54115    0.18184    1.000
    O1       O        0.59498    0.51400    0.25670    1.000
    O2       O        0.49550    0.52560    0.32103    1.000
    O3       O        0.55058    0.56736    0.11152    1.000
    N1       N        0.53403    0.53665    0.23000    1.000
    N2       N        0.50820    0.55219    0.18940    1.000
    C1       C        0.58182    0.50088    0.31950    1.000
    C2       C        0.60176    0.48022    0.36490    1.000
    H1       H        0.62340    0.47530    0.34850    1.000
    C3       C        0.59013    0.46732    0.43230    1.000
    H2       H        0.60420    0.45400    0.46260    1.000
    C4       C        0.55885    0.47284    0.45780    1.000
    H3       H        0.55140    0.46390    0.50530    1.000
    C5       C        0.53839    0.49192    0.41220    1.000
    H4       H        0.51660    0.49590    0.42910    1.000
    C6       C        0.54877    0.50544    0.34250    1.000
    C7       C        0.52482    0.52348    0.29600    1.000
    C8       C        0.51948    0.56693    0.12830    1.000
    C9       C        0.49659    0.58442    0.07500    1.000
    H5       H        0.47400    0.58220    0.09470    1.000
    H6       H        0.49750    0.57410    0.02320    1.000
    C10      C        0.50493    0.62024    0.06750    1.000
    H7       H        0.49110    0.63020    0.02690    1.000
    H8       H        0.52800    0.62250    0.05150    1.000
    C11      C        0.49967    0.63848    0.14350    1.000
    H9       H        0.47710    0.63450    0.16190    1.000
    H10      H        0.51490    0.62970    0.18280    1.000
    C12      C        0.50500    0.67500    0.13580    1.000
    H11      H        0.52770    0.67900    0.11850    1.000
    H12      H        0.49010    0.68360    0.09560    1.000
    C13      C        0.49920    0.69300    0.20940    1.000
    H13      H        0.47600    0.69880    0.21330    1.000
    H14      H        0.51250    0.71290    0.21010    1.000
    H15      H        0.50530    0.67900    0.25320    1.000
    Mn2      Mn       0.46060    0.53807    0.24670    1.000
    O4       O        0.45228    0.57945    0.28670    1.000
    O5       O        0.38526    0.56698    0.10026    1.000
    O6       O        0.46339    0.49633    0.19429    1.000
    N3       N        0.42627    0.54364    0.17060    1.000
    N4       N        0.42153    0.51611    0.12180    1.000
    N5       N        0.42650    0.51173    0.33120    1.000
    C14      C        0.42844    0.60023    0.26970    1.000
    C15      C        0.42626    0.62860    0.31580    1.000
    H16      H        0.44180    0.63220    0.35580    1.000
    C16      C        0.40155    0.65129    0.30310    1.000
    H17      H        0.40020    0.67010    0.33510    1.000
    C17      C        0.37898    0.64694    0.24500    1.000
    H18      H        0.36200    0.66240    0.23700    1.000
    C18      C        0.38158    0.62005    0.19900    1.000
    H19      H        0.36620    0.61720    0.15850    1.000
    C19      C        0.40602    0.59632    0.20890    1.000
    C20      C        0.40567    0.56772    0.15620    1.000
    C21      C        0.44192    0.49288    0.14040    1.000
    C22      C        0.43910    0.46015    0.10200    1.000
    H20      H        0.46110    0.45280    0.08530    1.000
    H21      H        0.42520    0.46220    0.05530    1.000
    C23      C        0.42426    0.43464    0.15630    1.000
    H22      H        0.42650    0.41270    0.13260    1.000
    H23      H        0.43660    0.43460    0.20550    1.000
    C24      C        0.38835    0.44119    0.17340    1.000
    H24      H        0.37600    0.44150    0.12420    1.000
    H25      H        0.38620    0.46300    0.19760    1.000
    C25      C        0.37310    0.41545    0.22730    1.000
    H26      H        0.37530    0.39350    0.20350    1.000
    H27      H        0.38510    0.41530    0.27710    1.000
    C26      C        0.33690    0.42280    0.24210    1.000
    H28      H        0.33420    0.44630    0.25210    1.000
    H29      H        0.32940    0.41040    0.28700    1.000
    H30      H        0.32410    0.41660    0.19660    1.000
    C27      C        0.43515    0.48272    0.35610    1.000
    H31      H        0.45680    0.47540    0.34600    1.000
    C28      C        0.41430    0.46240    0.39650    1.000
    H32      H        0.42160    0.44160    0.41390    1.000
    C29      C        0.38242    0.47280    0.41150    1.000
    C30      C        0.37461    0.50295    0.38660    1.000
    H33      H        0.35340    0.51130    0.39760    1.000
    C31      C        0.39600    0.52219    0.34590    1.000
    H34      H        0.38920    0.54310    0.32800    1.000
    C32      C        0.35979    0.45110    0.45770    1.000
    H35      H        0.33710    0.45900    0.45120    1.000
    H36      H        0.36090    0.42860    0.43680    1.000
    Mn3      Mn       0.61290    0.47013    0.97275    1.000
    O7       O        0.64919    0.49169    0.93288    1.000
    O8       O        0.61759    0.54845    0.12546    1.000
    O9       O        0.57497    0.45326    0.02602    1.000
    N6       N        0.60622    0.50505    0.04830    1.000
    N7       N        0.57813    0.50065    0.09460    1.000
    N8       N        0.30859    0.39432    0.69310    1.000
    C33      C        0.66588    0.51595    0.96330    1.000
    C34      C        0.69637    0.52292    0.92890    1.000
    H37      H        0.70350    0.51040    0.88590    1.000
    C35      C        0.71598    0.54765    0.95690    1.000
    H38      H        0.73660    0.55170    0.93360    1.000
    C36      C        0.70590    0.56666    0.01850    1.000
    H39      H        0.71930    0.58390    0.03690    1.000
    C37      C        0.67654    0.56044    0.05260    1.000
    H40      H        0.66970    0.57370    0.09470    1.000
    C38      C        0.65617    0.53505    0.02720    1.000
    C39      C        0.62521    0.52962    0.06810    1.000
    C40      C        0.56397    0.47314    0.07780    1.000
    C41      C        0.53491    0.46221    0.12350    1.000
    H41      H        0.52590    0.48100    0.15250    1.000
    H42      H        0.51780    0.45420    0.08770    1.000
    C42      C        0.54440    0.43390    0.18230    1.000
    H43      H        0.55180    0.41460    0.15260    1.000
    H44      H        0.56300    0.44130    0.21450    1.000
    C43      C        0.51460    0.42290    0.23900    1.000
    H45      H        0.49720    0.41220    0.20820    1.000
    H46      H        0.50500    0.44250    0.26400    1.000
    C44      C        0.52520    0.40260    0.29240    1.000
    H47      H        0.53380    0.38190    0.27060    1.000
    H48      H        0.54160    0.41260    0.32730    1.000
    C45      C        0.48870    0.39820    0.33380    1.000
    H49      H        0.47770    0.41940    0.33650    1.000
    H50      H        0.47540    0.38310    0.30300    1.000
    H51      H        0.49140    0.38940    0.38610    1.000
    C46      C        0.30641    0.38941    0.61670    1.000
    H52      H        0.29160    0.37320    0.59840    1.000
    C47      C        0.32436    0.40655    0.56340    1.000
    H53      H        0.32210    0.40210    0.50980    1.000
    C48      C        0.34593    0.43061    0.58910    1.000
    C49      C        0.34749    0.43601    0.66730    1.000
    H54      H        0.36160    0.45240    0.68740    1.000
    C50      C        0.32862    0.41773    0.71640    1.000
    H55      H        0.33000    0.42210    0.77030    1.000
    C51      C        0.36700    0.45030    0.53420    1.000
    H56      H        0.36710    0.47310    0.55300    1.000
    H57      H        0.38970    0.44200    0.53920    1.000
    Mn4      Mn       0.07646    0.04115    0.68184    1.000
    O10      O        0.09498    0.01400    0.75670    1.000
    O11      O        0.99550    0.02560    0.82103    1.000
    O12      O        0.05058    0.06736    0.61152    1.000
    N9       N        0.03403    0.03665    0.73000    1.000
    N10      N        0.00820    0.05219    0.68940    1.000
    C52      C        0.08182    0.00088    0.81950    1.000
    C53      C        0.10176    0.98022    0.86490    1.000
    H58      H        0.12340    0.97530    0.84850    1.000
    C54      C        0.09013    0.96732    0.93230    1.000
    H59      H        0.10420    0.95400    0.96260    1.000
    C55      C        0.05885    0.97284    0.95780    1.000
    H60      H        0.05140    0.96390    0.00530    1.000
    C56      C        0.03839    0.99192    0.91220    1.000
    H61      H        0.01660    0.99590    0.92910    1.000
    C57      C        0.04877    0.00544    0.84250    1.000
    C58      C        0.02482    0.02348    0.79600    1.000
    C59      C        0.01948    0.06693    0.62830    1.000
    C60      C        0.99659    0.08442    0.57500    1.000
    H62      H        0.97400    0.08220    0.59470    1.000
    H63      H        0.99750    0.07410    0.52320    1.000
    C61      C        0.00493    0.12024    0.56750    1.000
    H64      H        0.99110    0.13020    0.52690    1.000
    H65      H        0.02800    0.12250    0.55150    1.000
    C62      C        0.99967    0.13848    0.64350    1.000
    H66      H        0.97710    0.13450    0.66190    1.000
    H67      H        0.01490    0.12970    0.68280    1.000
    C63      C        0.00500    0.17500    0.63580    1.000
    H68      H        0.02770    0.17900    0.61850    1.000
    H69      H        0.99010    0.18360    0.59560    1.000
    C64      C        0.99920    0.19300    0.70940    1.000
    H70      H        0.97600    0.19880    0.71330    1.000
    H71      H        0.01250    0.21290    0.71010    1.000
    H72      H        0.00530    0.17900    0.75320    1.000
    Mn5      Mn       0.96060    0.03807    0.74670    1.000
    O13      O        0.95228    0.07945    0.78670    1.000
    O14      O        0.88526    0.06698    0.60026    1.000
    O15      O        0.96339    0.99633    0.69429    1.000
    N11      N        0.92627    0.04364    0.67060    1.000
    N12      N        0.92153    0.01611    0.62180    1.000
    N13      N        0.92650    0.01173    0.83120    1.000
    C65      C        0.92844    0.10023    0.76970    1.000
    C66      C        0.92626    0.12860    0.81580    1.000
    H73      H        0.94180    0.13220    0.85580    1.000
    C67      C        0.90155    0.15129    0.80310    1.000
    H74      H        0.90020    0.17010    0.83510    1.000
    C68      C        0.87898    0.14694    0.74500    1.000
    H75      H        0.86200    0.16240    0.73700    1.000
    C69      C        0.88158    0.12005    0.69900    1.000
    H76      H        0.86620    0.11720    0.65850    1.000
    C70      C        0.90602    0.09632    0.70890    1.000
    C71      C        0.90567    0.06772    0.65620    1.000
    C72      C        0.94192    0.99288    0.64040    1.000
    C73      C        0.93910    0.96015    0.60200    1.000
    H77      H        0.96110    0.95280    0.58530    1.000
    H78      H        0.92520    0.96220    0.55530    1.000
    C74      C        0.92426    0.93464    0.65630    1.000
    H79      H        0.92650    0.91270    0.63260    1.000
    H80      H        0.93660    0.93460    0.70550    1.000
    C75      C        0.88835    0.94119    0.67340    1.000
    H81      H        0.87600    0.94150    0.62420    1.000
    H82      H        0.88620    0.96300    0.69760    1.000
    C76      C        0.87310    0.91545    0.72730    1.000
    H83      H        0.87530    0.89350    0.70350    1.000
    H84      H        0.88510    0.91530    0.77710    1.000
    C77      C        0.83690    0.92280    0.74210    1.000
    H85      H        0.83420    0.94630    0.75210    1.000
    H86      H        0.82940    0.91040    0.78700    1.000
    H87      H        0.82410    0.91660    0.69660    1.000
    C78      C        0.93515    0.98272    0.85610    1.000
    H88      H        0.95680    0.97540    0.84600    1.000
    C79      C        0.91430    0.96240    0.89650    1.000
    H89      H        0.92160    0.94160    0.91390    1.000
    C80      C        0.88242    0.97280    0.91150    1.000
    C81      C        0.87461    0.00295    0.88660    1.000
    H90      H        0.85340    0.01130    0.89760    1.000
    C82      C        0.89600    0.02219    0.84590    1.000
    H91      H        0.88920    0.04310    0.82800    1.000
    C83      C        0.85979    0.95110    0.95770    1.000
    H92      H        0.83710    0.95900    0.95120    1.000
    H93      H        0.86090    0.92860    0.93680    1.000
    Mn6      Mn       0.11290    0.97013    0.47275    1.000
    O16      O        0.14919    0.99169    0.43288    1.000
    O17      O        0.11759    0.04845    0.62546    1.000
    O18      O        0.07497    0.95326    0.52602    1.000
    N14      N        0.10622    0.00505    0.54830    1.000
    N15      N        0.07813    0.00065    0.59460    1.000
    N16      N        0.80859    0.89432    0.19310    1.000
    C84      C        0.16588    0.01595    0.46330    1.000
    C85      C        0.19637    0.02292    0.42890    1.000
    H94      H        0.20350    0.01040    0.38590    1.000
    C86      C        0.21598    0.04765    0.45690    1.000
    H95      H        0.23660    0.05170    0.43360    1.000
    C87      C        0.20590    0.06666    0.51850    1.000
    H96      H        0.21930    0.08390    0.53690    1.000
    C88      C        0.17654    0.06044    0.55260    1.000
    H97      H        0.16970    0.07370    0.59470    1.000
    C89      C        0.15617    0.03505    0.52720    1.000
    C90      C        0.12521    0.02962    0.56810    1.000
    C91      C        0.06397    0.97314    0.57780    1.000
    C92      C        0.03491    0.96221    0.62350    1.000
    H98      H        0.02590    0.98100    0.65250    1.000
    H99      H        0.01780    0.95420    0.58770    1.000
    C93      C        0.04440    0.93390    0.68230    1.000
    H100     H        0.05180    0.91460    0.65260    1.000
    H101     H        0.06300    0.94130    0.71450    1.000
    C94      C        0.01460    0.92290    0.73900    1.000
    H102     H        0.99720    0.91220    0.70820    1.000
    H103     H        0.00500    0.94250    0.76400    1.000
    C95      C        0.02520    0.90260    0.79240    1.000
    H104     H        0.03380    0.88190    0.77060    1.000
    H105     H        0.04160    0.91260    0.82730    1.000
    C96      C        0.98870    0.89820    0.83380    1.000
    H106     H        0.97770    0.91940    0.83650    1.000
    H107     H        0.97540    0.88310    0.80300    1.000
    H108     H        0.99140    0.88940    0.88610    1.000
    C97      C        0.80641    0.88941    0.11670    1.000
    H109     H        0.79160    0.87320    0.09840    1.000
    C98      C        0.82436    0.90655    0.06340    1.000
    H110     H        0.82210    0.90210    0.00980    1.000
    C99      C        0.84593    0.93061    0.08910    1.000
    C100     C        0.84749    0.93601    0.16730    1.000
    H111     H        0.86160    0.95240    0.18740    1.000
    C101     C        0.82862    0.91773    0.21640    1.000
    H112     H        0.83000    0.92210    0.27030    1.000
    C102     C        0.86700    0.95030    0.03420    1.000
    H113     H        0.86710    0.97310    0.05300    1.000
    H114     H        0.88970    0.94200    0.03920    1.000
    Mn7      Mn       0.92354    0.45885    0.68184    1.000
    O19      O        0.90502    0.48600    0.75670    1.000
    O20      O        0.00450    0.47440    0.82103    1.000
    O21      O        0.94942    0.43264    0.61152    1.000
    N17      N        0.96597    0.46335    0.73000    1.000
    N18      N        0.99180    0.44781    0.68940    1.000
    C103     C        0.91818    0.49912    0.81950    1.000
    C104     C        0.89824    0.51978    0.86490    1.000
    H115     H        0.87660    0.52470    0.84850    1.000
    C105     C        0.90987    0.53268    0.93230    1.000
    H116     H        0.89580    0.54600    0.96260    1.000
    C106     C        0.94115    0.52716    0.95780    1.000
    H117     H        0.94860    0.53610    0.00530    1.000
    C107     C        0.96161    0.50808    0.91220    1.000
    H118     H        0.98340    0.50410    0.92910    1.000
    C108     C        0.95123    0.49456    0.84250    1.000
    C109     C        0.97518    0.47652    0.79600    1.000
    C110     C        0.98052    0.43307    0.62830    1.000
    C111     C        0.00341    0.41558    0.57500    1.000
    H119     H        0.02600    0.41780    0.59470    1.000
    H120     H        0.00250    0.42590    0.52320    1.000
    C112     C        0.99507    0.37976    0.56750    1.000
    H121     H        0.00890    0.36980    0.52690    1.000
    H122     H        0.97200    0.37750    0.55150    1.000
    C113     C        0.00033    0.36152    0.64350    1.000
    H123     H        0.02290    0.36550    0.66190    1.000
    H124     H        0.98510    0.37030    0.68280    1.000
    C114     C        0.99500    0.32500    0.63580    1.000
    H125     H        0.97230    0.32100    0.61850    1.000
    H126     H        0.00990    0.31640    0.59560    1.000
    C115     C        0.00080    0.30700    0.70940    1.000
    H127     H        0.02400    0.30120    0.71330    1.000
    H128     H        0.98750    0.28710    0.71010    1.000
    H129     H        0.99470    0.32100    0.75320    1.000
    Mn8      Mn       0.03940    0.46193    0.74670    1.000
    O22      O        0.04772    0.42055    0.78670    1.000
    O23      O        0.11474    0.43302    0.60026    1.000
    O24      O        0.03661    0.50367    0.69429    1.000
    N19      N        0.07373    0.45636    0.67060    1.000
    N20      N        0.07847    0.48389    0.62180    1.000
    N21      N        0.07350    0.48827    0.83120    1.000
    C116     C        0.07156    0.39977    0.76970    1.000
    C117     C        0.07374    0.37140    0.81580    1.000
    H130     H        0.05820    0.36780    0.85580    1.000
    C118     C        0.09845    0.34871    0.80310    1.000
    H131     H        0.09980    0.32990    0.83510    1.000
    C119     C        0.12102    0.35306    0.74500    1.000
    H132     H        0.13800    0.33760    0.73700    1.000
    C120     C        0.11842    0.37995    0.69900    1.000
    H133     H        0.13380    0.38280    0.65850    1.000
    C121     C        0.09398    0.40368    0.70890    1.000
    C122     C        0.09433    0.43228    0.65620    1.000
    C123     C        0.05808    0.50712    0.64040    1.000
    C124     C        0.06090    0.53985    0.60200    1.000
    H134     H        0.03890    0.54720    0.58530    1.000
    H135     H        0.07480    0.53780    0.55530    1.000
    C125     C        0.07574    0.56536    0.65630    1.000
    H136     H        0.07350    0.58730    0.63260    1.000
    H137     H        0.06340    0.56540    0.70550    1.000
    C126     C        0.11165    0.55881    0.67340    1.000
    H138     H        0.12400    0.55850    0.62420    1.000
    H139     H        0.11380    0.53700    0.69760    1.000
    C127     C        0.12690    0.58455    0.72730    1.000
    H140     H        0.12470    0.60650    0.70350    1.000
    H141     H        0.11490    0.58470    0.77710    1.000
    C128     C        0.16310    0.57720    0.74210    1.000
    H142     H        0.16580    0.55370    0.75210    1.000
    H143     H        0.17060    0.58960    0.78700    1.000
    H144     H        0.17590    0.58340    0.69660    1.000
    C129     C        0.06485    0.51728    0.85610    1.000
    H145     H        0.04320    0.52460    0.84600    1.000
    C130     C        0.08570    0.53760    0.89650    1.000
    H146     H        0.07840    0.55840    0.91390    1.000
    C131     C        0.11758    0.52720    0.91150    1.000
    C132     C        0.12539    0.49705    0.88660    1.000
    H147     H        0.14660    0.48870    0.89760    1.000
    C133     C        0.10400    0.47781    0.84590    1.000
    H148     H        0.11080    0.45690    0.82800    1.000
    C134     C        0.14021    0.54890    0.95770    1.000
    H149     H        0.16290    0.54100    0.95120    1.000
    H150     H        0.13910    0.57140    0.93680    1.000
    Mn9      Mn       0.88710    0.52987    0.47275    1.000
    O25      O        0.85081    0.50831    0.43288    1.000
    O26      O        0.88241    0.45155    0.62546    1.000
    O27      O        0.92503    0.54674    0.52602    1.000
    N22      N        0.89378    0.49495    0.54830    1.000
    N23      N        0.92187    0.49935    0.59460    1.000
    N24      N        0.19141    0.60568    0.19310    1.000
    C135     C        0.83412    0.48405    0.46330    1.000
    C136     C        0.80363    0.47708    0.42890    1.000
    H151     H        0.79650    0.48960    0.38590    1.000
    C137     C        0.78402    0.45235    0.45690    1.000
    H152     H        0.76340    0.44830    0.43360    1.000
    C138     C        0.79410    0.43334    0.51850    1.000
    H153     H        0.78070    0.41610    0.53690    1.000
    C139     C        0.82346    0.43956    0.55260    1.000
    H154     H        0.83030    0.42630    0.59470    1.000
    C140     C        0.84383    0.46495    0.52720    1.000
    C141     C        0.87479    0.47038    0.56810    1.000
    C142     C        0.93603    0.52686    0.57780    1.000
    C143     C        0.96509    0.53779    0.62350    1.000
    H155     H        0.97410    0.51900    0.65250    1.000
    H156     H        0.98220    0.54580    0.58770    1.000
    C144     C        0.95560    0.56610    0.68230    1.000
    H157     H        0.94820    0.58540    0.65260    1.000
    H158     H        0.93700    0.55870    0.71450    1.000
    C145     C        0.98540    0.57710    0.73900    1.000
    H159     H        0.00280    0.58780    0.70820    1.000
    H160     H        0.99500    0.55750    0.76400    1.000
    C146     C        0.97480    0.59740    0.79240    1.000
    H161     H        0.96620    0.61810    0.77060    1.000
    H162     H        0.95840    0.58740    0.82730    1.000
    C147     C        0.01130    0.60180    0.83380    1.000
    H163     H        0.02230    0.58060    0.83650    1.000
    H164     H        0.02460    0.61690    0.80300    1.000
    H165     H        0.00860    0.61060    0.88610    1.000
    C148     C        0.19359    0.61059    0.11670    1.000
    H166     H        0.20840    0.62680    0.09840    1.000
    C149     C        0.17564    0.59345    0.06340    1.000
    H167     H        0.17790    0.59790    0.00980    1.000
    C150     C        0.15407    0.56939    0.08910    1.000
    C151     C        0.15251    0.56399    0.16730    1.000
    H168     H        0.13840    0.54760    0.18740    1.000
    C152     C        0.17138    0.58227    0.21640    1.000
    H169     H        0.17000    0.57790    0.27030    1.000
    C153     C        0.13300    0.54970    0.03420    1.000
    H170     H        0.13290    0.52690    0.05300    1.000
    H171     H        0.11030    0.55800    0.03920    1.000
    Mn10     Mn       0.42354    0.95885    0.18184    1.000
    O28      O        0.40502    0.98600    0.25670    1.000
    O29      O        0.50450    0.97440    0.32103    1.000
    O30      O        0.44942    0.93264    0.11152    1.000
    N25      N        0.46597    0.96335    0.23000    1.000
    N26      N        0.49180    0.94781    0.18940    1.000
    C154     C        0.41818    0.99912    0.31950    1.000
    C155     C        0.39824    0.01978    0.36490    1.000
    H172     H        0.37660    0.02470    0.34850    1.000
    C156     C        0.40987    0.03268    0.43230    1.000
    H173     H        0.39580    0.04600    0.46260    1.000
    C157     C        0.44115    0.02716    0.45780    1.000
    H174     H        0.44860    0.03610    0.50530    1.000
    C158     C        0.46161    0.00808    0.41220    1.000
    H175     H        0.48340    0.00410    0.42910    1.000
    C159     C        0.45123    0.99456    0.34250    1.000
    C160     C        0.47518    0.97652    0.29600    1.000
    C161     C        0.48052    0.93307    0.12830    1.000
    C162     C        0.50341    0.91558    0.07500    1.000
    H176     H        0.52600    0.91780    0.09470    1.000
    H177     H        0.50250    0.92590    0.02320    1.000
    C163     C        0.49507    0.87976    0.06750    1.000
    H178     H        0.50890    0.86980    0.02690    1.000
    H179     H        0.47200    0.87750    0.05150    1.000
    C164     C        0.50033    0.86152    0.14350    1.000
    H180     H        0.52290    0.86550    0.16190    1.000
    H181     H        0.48510    0.87030    0.18280    1.000
    C165     C        0.49500    0.82500    0.13580    1.000
    H182     H        0.47230    0.82100    0.11850    1.000
    H183     H        0.50990    0.81640    0.09560    1.000
    C166     C        0.50080    0.80700    0.20940    1.000
    H184     H        0.52400    0.80120    0.21330    1.000
    H185     H        0.48750    0.78710    0.21010    1.000
    H186     H        0.49470    0.82100    0.25320    1.000
    Mn11     Mn       0.53940    0.96193    0.24670    1.000
    O31      O        0.54772    0.92055    0.28670    1.000
    O32      O        0.61474    0.93302    0.10026    1.000
    O33      O        0.53661    0.00367    0.19429    1.000
    N27      N        0.57373    0.95636    0.17060    1.000
    N28      N        0.57847    0.98389    0.12180    1.000
    N29      N        0.57350    0.98827    0.33120    1.000
    C167     C        0.57156    0.89977    0.26970    1.000
    C168     C        0.57374    0.87140    0.31580    1.000
    H187     H        0.55820    0.86780    0.35580    1.000
    C169     C        0.59845    0.84871    0.30310    1.000
    H188     H        0.59980    0.82990    0.33510    1.000
    C170     C        0.62102    0.85306    0.24500    1.000
    H189     H        0.63800    0.83760    0.23700    1.000
    C171     C        0.61842    0.87995    0.19900    1.000
    H190     H        0.63380    0.88280    0.15850    1.000
    C172     C        0.59398    0.90368    0.20890    1.000
    C173     C        0.59433    0.93228    0.15620    1.000
    C174     C        0.55808    0.00712    0.14040    1.000
    C175     C        0.56090    0.03985    0.10200    1.000
    H191     H        0.53890    0.04720    0.08530    1.000
    H192     H        0.57480    0.03780    0.05530    1.000
    C176     C        0.57574    0.06536    0.15630    1.000
    H193     H        0.57350    0.08730    0.13260    1.000
    H194     H        0.56340    0.06540    0.20550    1.000
    C177     C        0.61165    0.05881    0.17340    1.000
    H195     H        0.62400    0.05850    0.12420    1.000
    H196     H        0.61380    0.03700    0.19760    1.000
    C178     C        0.62690    0.08455    0.22730    1.000
    H197     H        0.62470    0.10650    0.20350    1.000
    H198     H        0.61490    0.08470    0.27710    1.000
    C179     C        0.66310    0.07720    0.24210    1.000
    H199     H        0.66580    0.05370    0.25210    1.000
    H200     H        0.67060    0.08960    0.28700    1.000
    H201     H        0.67590    0.08340    0.19660    1.000
    C180     C        0.56485    0.01728    0.35610    1.000
    H202     H        0.54320    0.02460    0.34600    1.000
    C181     C        0.58570    0.03760    0.39650    1.000
    H203     H        0.57840    0.05840    0.41390    1.000
    C182     C        0.61758    0.02720    0.41150    1.000
    C183     C        0.62539    0.99705    0.38660    1.000
    H204     H        0.64660    0.98870    0.39760    1.000
    C184     C        0.60400    0.97781    0.34590    1.000
    H205     H        0.61080    0.95690    0.32800    1.000
    C185     C        0.64021    0.04890    0.45770    1.000
    H206     H        0.66290    0.04100    0.45120    1.000
    H207     H        0.63910    0.07140    0.43680    1.000
    Mn12     Mn       0.38710    0.02987    0.97275    1.000
    O34      O        0.35081    0.00831    0.93288    1.000
    O35      O        0.38241    0.95155    0.12546    1.000
    O36      O        0.42503    0.04674    0.02602    1.000
    N30      N        0.39378    0.99495    0.04830    1.000
    N31      N        0.42187    0.99935    0.09460    1.000
    N32      N        0.69141    0.10568    0.69310    1.000
    C186     C        0.33412    0.98405    0.96330    1.000
    C187     C        0.30363    0.97708    0.92890    1.000
    H208     H        0.29650    0.98960    0.88590    1.000
    C188     C        0.28402    0.95235    0.95690    1.000
    H209     H        0.26340    0.94830    0.93360    1.000
    C189     C        0.29410    0.93334    0.01850    1.000
    H210     H        0.28070    0.91610    0.03690    1.000
    C190     C        0.32346    0.93956    0.05260    1.000
    H211     H        0.33030    0.92630    0.09470    1.000
    C191     C        0.34383    0.96495    0.02720    1.000
    C192     C        0.37479    0.97038    0.06810    1.000
    C193     C        0.43603    0.02686    0.07780    1.000
    C194     C        0.46509    0.03779    0.12350    1.000
    H212     H        0.47410    0.01900    0.15250    1.000
    H213     H        0.48220    0.04580    0.08770    1.000
    C195     C        0.45560    0.06610    0.18230    1.000
    H214     H        0.44820    0.08540    0.15260    1.000
    H215     H        0.43700    0.05870    0.21450    1.000
    C196     C        0.48540    0.07710    0.23900    1.000
    H216     H        0.50280    0.08780    0.20820    1.000
    H217     H        0.49500    0.05750    0.26400    1.000
    C197     C        0.47480    0.09740    0.29240    1.000
    H218     H        0.46620    0.11810    0.27060    1.000
    H219     H        0.45840    0.08740    0.32730    1.000
    C198     C        0.51130    0.10180    0.33380    1.000
    H220     H        0.52230    0.08060    0.33650    1.000
    H221     H        0.52460    0.11690    0.30300    1.000
    H222     H        0.50860    0.11060    0.38610    1.000
    C199     C        0.69359    0.11059    0.61670    1.000
    H223     H        0.70840    0.12680    0.59840    1.000
    C200     C        0.67564    0.09345    0.56340    1.000
    H224     H        0.67790    0.09790    0.50980    1.000
    C201     C        0.65407    0.06939    0.58910    1.000
    C202     C        0.65251    0.06399    0.66730    1.000
    H225     H        0.63840    0.04760    0.68740    1.000
    C203     C        0.67138    0.08227    0.71640    1.000
    H226     H        0.67000    0.07790    0.77030    1.000
    C204     C        0.63300    0.04970    0.53420    1.000
    H227     H        0.63290    0.02690    0.55300    1.000
    H228     H        0.61030    0.05800    0.53920    1.000
    Mn13     Mn       0.20885    0.82646    0.43184    1.000
    O37      O        0.23600    0.84498    0.50670    1.000
    O38      O        0.22440    0.74550    0.57103    1.000
    O39      O        0.18264    0.80058    0.36152    1.000
    N33      N        0.21335    0.78403    0.48000    1.000
    N34      N        0.19781    0.75820    0.43940    1.000
    C205     C        0.24912    0.83182    0.56950    1.000
    C206     C        0.26978    0.85176    0.61490    1.000
    H229     H        0.27470    0.87340    0.59850    1.000
    C207     C        0.28268    0.84013    0.68230    1.000
    H230     H        0.29600    0.85420    0.71260    1.000
    C208     C        0.27716    0.80885    0.70780    1.000
    H231     H        0.28610    0.80140    0.75530    1.000
    C209     C        0.25808    0.78839    0.66220    1.000
    H232     H        0.25410    0.76660    0.67910    1.000
    C210     C        0.24456    0.79877    0.59250    1.000
    C211     C        0.22652    0.77482    0.54600    1.000
    C212     C        0.18307    0.76948    0.37830    1.000
    C213     C        0.16558    0.74659    0.32500    1.000
    H233     H        0.16780    0.72400    0.34470    1.000
    H234     H        0.17590    0.74750    0.27320    1.000
    C214     C        0.12976    0.75493    0.31750    1.000
    H235     H        0.11980    0.74110    0.27690    1.000
    H236     H        0.12750    0.77800    0.30150    1.000
    C215     C        0.11152    0.74967    0.39350    1.000
    H237     H        0.11550    0.72710    0.41190    1.000
    H238     H        0.12030    0.76490    0.43280    1.000
    C216     C        0.07500    0.75500    0.38580    1.000
    H239     H        0.07100    0.77770    0.36850    1.000
    H240     H        0.06640    0.74010    0.34560    1.000
    C217     C        0.05700    0.74920    0.45940    1.000
    H241     H        0.05120    0.72600    0.46330    1.000
    H242     H        0.03710    0.76250    0.46010    1.000
    H243     H        0.07100    0.75530    0.50320    1.000
    Mn14     Mn       0.21193    0.71060    0.49670    1.000
    O40      O        0.17055    0.70228    0.53670    1.000
    O41      O        0.18302    0.63526    0.35026    1.000
    O42      O        0.25367    0.71339    0.44429    1.000
    N35      N        0.20636    0.67627    0.42060    1.000
    N36      N        0.23389    0.67153    0.37180    1.000
    N37      N        0.23827    0.67650    0.58120    1.000
    C218     C        0.14977    0.67844    0.51970    1.000
    C219     C        0.12140    0.67626    0.56580    1.000
    H244     H        0.11780    0.69180    0.60580    1.000
    C220     C        0.09871    0.65155    0.55310    1.000
    H245     H        0.07990    0.65020    0.58510    1.000
    C221     C        0.10306    0.62898    0.49500    1.000
    H246     H        0.08760    0.61200    0.48700    1.000
    C222     C        0.12995    0.63158    0.44900    1.000
    H247     H        0.13280    0.61620    0.40850    1.000
    C223     C        0.15368    0.65602    0.45890    1.000
    C224     C        0.18228    0.65567    0.40620    1.000
    C225     C        0.25712    0.69192    0.39040    1.000
    C226     C        0.28985    0.68910    0.35200    1.000
    H248     H        0.29720    0.71110    0.33530    1.000
    H249     H        0.28780    0.67520    0.30530    1.000
    C227     C        0.31536    0.67426    0.40630    1.000
    H250     H        0.33730    0.67650    0.38260    1.000
    H251     H        0.31540    0.68660    0.45550    1.000
    C228     C        0.30881    0.63835    0.42340    1.000
    H252     H        0.30850    0.62600    0.37420    1.000
    H253     H        0.28700    0.63620    0.44760    1.000
    C229     C        0.33455    0.62310    0.47730    1.000
    H254     H        0.35650    0.62530    0.45350    1.000
    H255     H        0.33470    0.63510    0.52710    1.000
    C230     C        0.32720    0.58690    0.49210    1.000
    H256     H        0.30370    0.58420    0.50210    1.000
    H257     H        0.33960    0.57940    0.53700    1.000
    H258     H        0.33340    0.57410    0.44660    1.000
    C231     C        0.26728    0.68515    0.60610    1.000
    H259     H        0.27460    0.70680    0.59600    1.000
    C232     C        0.28760    0.66430    0.64650    1.000
    H260     H        0.30840    0.67160    0.66390    1.000
    C233     C        0.27720    0.63242    0.66150    1.000
    C234     C        0.24705    0.62461    0.63660    1.000
    H261     H        0.23870    0.60340    0.64760    1.000
    C235     C        0.22781    0.64600    0.59590    1.000
    H262     H        0.20690    0.63920    0.57800    1.000
    C236     C        0.29890    0.60979    0.70770    1.000
    H263     H        0.29100    0.58710    0.70120    1.000
    H264     H        0.32140    0.61090    0.68680    1.000
    Mn15     Mn       0.27987    0.86290    0.22275    1.000
    O43      O        0.25831    0.89919    0.18288    1.000
    O44      O        0.20155    0.86759    0.37546    1.000
    O45      O        0.29674    0.82497    0.27602    1.000
    N38      N        0.24495    0.85622    0.29830    1.000
    N39      N        0.24935    0.82813    0.34460    1.000
    N40      N        0.35568    0.55859    0.94310    1.000
    C237     C        0.23405    0.91588    0.21330    1.000
    C238     C        0.22708    0.94637    0.17890    1.000
    H265     H        0.23960    0.95350    0.13590    1.000
    C239     C        0.20235    0.96598    0.20690    1.000
    H266     H        0.19830    0.98660    0.18360    1.000
    C240     C        0.18334    0.95590    0.26850    1.000
    H267     H        0.16610    0.96930    0.28690    1.000
    C241     C        0.18956    0.92654    0.30260    1.000
    H268     H        0.17630    0.91970    0.34470    1.000
    C242     C        0.21495    0.90617    0.27720    1.000
    C243     C        0.22038    0.87521    0.31810    1.000
    C244     C        0.27686    0.81397    0.32780    1.000
    C245     C        0.28779    0.78491    0.37350    1.000
    H269     H        0.26900    0.77590    0.40250    1.000
    H270     H        0.29580    0.76780    0.33770    1.000
    C246     C        0.31610    0.79440    0.43230    1.000
    H271     H        0.33540    0.80180    0.40260    1.000
    H272     H        0.30870    0.81300    0.46450    1.000
    C247     C        0.32710    0.76460    0.48900    1.000
    H273     H        0.33780    0.74720    0.45820    1.000
    H274     H        0.30750    0.75500    0.51400    1.000
    C248     C        0.34740    0.77520    0.54240    1.000
    H275     H        0.36810    0.78380    0.52060    1.000
    H276     H        0.33740    0.79160    0.57730    1.000
    C249     C        0.35180    0.73870    0.58380    1.000
    H277     H        0.33060    0.72770    0.58650    1.000
    H278     H        0.36690    0.72540    0.55300    1.000
    H279     H        0.36060    0.74140    0.63610    1.000
    C250     C        0.36059    0.55641    0.86670    1.000
    H280     H        0.37680    0.54160    0.84840    1.000
    C251     C        0.34345    0.57436    0.81340    1.000
    H281     H        0.34790    0.57210    0.75980    1.000
    C252     C        0.31939    0.59593    0.83910    1.000
    C253     C        0.31399    0.59749    0.91730    1.000
    H282     H        0.29760    0.61160    0.93740    1.000
    C254     C        0.33227    0.57862    0.96640    1.000
    H283     H        0.32790    0.58000    0.02030    1.000
    C255     C        0.29970    0.61700    0.78420    1.000
    H284     H        0.27690    0.61710    0.80300    1.000
    H285     H        0.30800    0.63970    0.78920    1.000
    Mn16     Mn       0.70885    0.32646    0.93184    1.000
    O46      O        0.73600    0.34498    0.00670    1.000
    O47      O        0.72440    0.24550    0.07103    1.000
    O48      O        0.68264    0.30058    0.86152    1.000
    N41      N        0.71335    0.28403    0.98000    1.000
    N42      N        0.69781    0.25820    0.93940    1.000
    C256     C        0.74912    0.33182    0.06950    1.000
    C257     C        0.76978    0.35176    0.11490    1.000
    H286     H        0.77470    0.37340    0.09850    1.000
    C258     C        0.78268    0.34013    0.18230    1.000
    H287     H        0.79600    0.35420    0.21260    1.000
    C259     C        0.77716    0.30885    0.20780    1.000
    H288     H        0.78610    0.30140    0.25530    1.000
    C260     C        0.75808    0.28839    0.16220    1.000
    H289     H        0.75410    0.26660    0.17910    1.000
    C261     C        0.74456    0.29877    0.09250    1.000
    C262     C        0.72652    0.27482    0.04600    1.000
    C263     C        0.68307    0.26948    0.87830    1.000
    C264     C        0.66558    0.24659    0.82500    1.000
    H290     H        0.66780    0.22400    0.84470    1.000
    H291     H        0.67590    0.24750    0.77320    1.000
    C265     C        0.62976    0.25493    0.81750    1.000
    H292     H        0.61980    0.24110    0.77690    1.000
    H293     H        0.62750    0.27800    0.80150    1.000
    C266     C        0.61152    0.24967    0.89350    1.000
    H294     H        0.61550    0.22710    0.91190    1.000
    H295     H        0.62030    0.26490    0.93280    1.000
    C267     C        0.57500    0.25500    0.88580    1.000
    H296     H        0.57100    0.27770    0.86850    1.000
    H297     H        0.56640    0.24010    0.84560    1.000
    C268     C        0.55700    0.24920    0.95940    1.000
    H298     H        0.55120    0.22600    0.96330    1.000
    H299     H        0.53710    0.26250    0.96010    1.000
    H300     H        0.57100    0.25530    0.00320    1.000
    Mn17     Mn       0.71193    0.21060    0.99670    1.000
    O49      O        0.67055    0.20228    0.03670    1.000
    O50      O        0.68302    0.13526    0.85026    1.000
    O51      O        0.75367    0.21339    0.94429    1.000
    N43      N        0.70636    0.17627    0.92060    1.000
    N44      N        0.73389    0.17153    0.87180    1.000
    N45      N        0.73827    0.17650    0.08120    1.000
    C269     C        0.64977    0.17844    0.01970    1.000
    C270     C        0.62140    0.17626    0.06580    1.000
    H301     H        0.61780    0.19180    0.10580    1.000
    C271     C        0.59871    0.15155    0.05310    1.000
    H302     H        0.57990    0.15020    0.08510    1.000
    C272     C        0.60306    0.12898    0.99500    1.000
    H303     H        0.58760    0.11200    0.98700    1.000
    C273     C        0.62995    0.13158    0.94900    1.000
    H304     H        0.63280    0.11620    0.90850    1.000
    C274     C        0.65368    0.15602    0.95890    1.000
    C275     C        0.68228    0.15567    0.90620    1.000
    C276     C        0.75712    0.19192    0.89040    1.000
    C277     C        0.78985    0.18910    0.85200    1.000
    H305     H        0.79720    0.21110    0.83530    1.000
    H306     H        0.78780    0.17520    0.80530    1.000
    C278     C        0.81536    0.17426    0.90630    1.000
    H307     H        0.83730    0.17650    0.88260    1.000
    H308     H        0.81540    0.18660    0.95550    1.000
    C279     C        0.80881    0.13835    0.92340    1.000
    H309     H        0.80850    0.12600    0.87420    1.000
    H310     H        0.78700    0.13620    0.94760    1.000
    C280     C        0.83455    0.12310    0.97730    1.000
    H311     H        0.85650    0.12530    0.95350    1.000
    H312     H        0.83470    0.13510    0.02710    1.000
    C281     C        0.82720    0.08690    0.99210    1.000
    H313     H        0.80370    0.08420    0.00210    1.000
    H314     H        0.83960    0.07940    0.03700    1.000
    H315     H        0.83340    0.07410    0.94660    1.000
    C282     C        0.76728    0.18515    0.10610    1.000
    H316     H        0.77460    0.20680    0.09600    1.000
    C283     C        0.78760    0.16430    0.14650    1.000
    H317     H        0.80840    0.17160    0.16390    1.000
    C284     C        0.77720    0.13242    0.16150    1.000
    C285     C        0.74705    0.12461    0.13660    1.000
    H318     H        0.73870    0.10340    0.14760    1.000
    C286     C        0.72781    0.14600    0.09590    1.000
    H319     H        0.70690    0.13920    0.07800    1.000
    C287     C        0.79890    0.10979    0.20770    1.000
    H320     H        0.79100    0.08710    0.20120    1.000
    H321     H        0.82140    0.11090    0.18680    1.000
    Mn18     Mn       0.77987    0.36290    0.72275    1.000
    O52      O        0.75831    0.39919    0.68288    1.000
    O53      O        0.70155    0.36759    0.87546    1.000
    O54      O        0.79674    0.32497    0.77602    1.000
    N46      N        0.74495    0.35622    0.79830    1.000
    N47      N        0.74935    0.32813    0.84460    1.000
    N48      N        0.85568    0.05859    0.44310    1.000
    C288     C        0.73405    0.41588    0.71330    1.000
    C289     C        0.72708    0.44637    0.67890    1.000
    H322     H        0.73960    0.45350    0.63590    1.000
    C290     C        0.70235    0.46598    0.70690    1.000
    H323     H        0.69830    0.48660    0.68360    1.000
    C291     C        0.68334    0.45590    0.76850    1.000
    H324     H        0.66610    0.46930    0.78690    1.000
    C292     C        0.68956    0.42654    0.80260    1.000
    H325     H        0.67630    0.41970    0.84470    1.000
    C293     C        0.71495    0.40617    0.77720    1.000
    C294     C        0.72038    0.37521    0.81810    1.000
    C295     C        0.77686    0.31397    0.82780    1.000
    C296     C        0.78779    0.28491    0.87350    1.000
    H326     H        0.76900    0.27590    0.90250    1.000
    H327     H        0.79580    0.26780    0.83770    1.000
    C297     C        0.81610    0.29440    0.93230    1.000
    H328     H        0.83540    0.30180    0.90260    1.000
    H329     H        0.80870    0.31300    0.96450    1.000
    C298     C        0.82710    0.26460    0.98900    1.000
    H330     H        0.83780    0.24720    0.95820    1.000
    H331     H        0.80750    0.25500    0.01400    1.000
    C299     C        0.84740    0.27520    0.04240    1.000
    H332     H        0.86810    0.28380    0.02060    1.000
    H333     H        0.83740    0.29160    0.07730    1.000
    C300     C        0.85180    0.23870    0.08380    1.000
    H334     H        0.83060    0.22770    0.08650    1.000
    H335     H        0.86690    0.22540    0.05300    1.000
    H336     H        0.86060    0.24140    0.13610    1.000
    C301     C        0.86059    0.05641    0.36670    1.000
    H337     H        0.87680    0.04160    0.34840    1.000
    C302     C        0.84345    0.07436    0.31340    1.000
    H338     H        0.84790    0.07210    0.25980    1.000
    C303     C        0.81939    0.09593    0.33910    1.000
    C304     C        0.81399    0.09749    0.41730    1.000
    H339     H        0.79760    0.11160    0.43740    1.000
    C305     C        0.83227    0.07862    0.46640    1.000
    H340     H        0.82790    0.08000    0.52030    1.000
    C306     C        0.79970    0.11700    0.28420    1.000
    H341     H        0.77690    0.11710    0.30300    1.000
    H342     H        0.80800    0.13970    0.28920    1.000
    Mn19     Mn       0.29115    0.17354    0.93184    1.000
    O55      O        0.26400    0.15502    0.00670    1.000
    O56      O        0.27560    0.25450    0.07103    1.000
    O57      O        0.31736    0.19942    0.86152    1.000
    N49      N        0.28665    0.21597    0.98000    1.000
    N50      N        0.30219    0.24180    0.93940    1.000
    C307     C        0.25088    0.16818    0.06950    1.000
    C308     C        0.23022    0.14824    0.11490    1.000
    H343     H        0.22530    0.12660    0.09850    1.000
    C309     C        0.21732    0.15987    0.18230    1.000
    H344     H        0.20400    0.14580    0.21260    1.000
    C310     C        0.22284    0.19115    0.20780    1.000
    H345     H        0.21390    0.19860    0.25530    1.000
    C311     C        0.24192    0.21161    0.16220    1.000
    H346     H        0.24590    0.23340    0.17910    1.000
    C312     C        0.25544    0.20123    0.09250    1.000
    C313     C        0.27348    0.22518    0.04600    1.000
    C314     C        0.31693    0.23052    0.87830    1.000
    C315     C        0.33442    0.25341    0.82500    1.000
    H347     H        0.33220    0.27600    0.84470    1.000
    H348     H        0.32410    0.25250    0.77320    1.000
    C316     C        0.37024    0.24507    0.81750    1.000
    H349     H        0.38020    0.25890    0.77690    1.000
    H350     H        0.37250    0.22200    0.80150    1.000
    C317     C        0.38848    0.25033    0.89350    1.000
    H351     H        0.38450    0.27290    0.91190    1.000
    H352     H        0.37970    0.23510    0.93280    1.000
    C318     C        0.42500    0.24500    0.88580    1.000
    H353     H        0.42900    0.22230    0.86850    1.000
    H354     H        0.43360    0.25990    0.84560    1.000
    C319     C        0.44300    0.25080    0.95940    1.000
    H355     H        0.44880    0.27400    0.96330    1.000
    H356     H        0.46290    0.23750    0.96010    1.000
    H357     H        0.42900    0.24470    0.00320    1.000
    Mn20     Mn       0.28807    0.28940    0.99670    1.000
    O58      O        0.32945    0.29772    0.03670    1.000
    O59      O        0.31698    0.36474    0.85026    1.000
    O60      O        0.24633    0.28661    0.94429    1.000
    N51      N        0.29364    0.32373    0.92060    1.000
    N52      N        0.26611    0.32847    0.87180    1.000
    N53      N        0.26173    0.32350    0.08120    1.000
    C320     C        0.35023    0.32156    0.01970    1.000
    C321     C        0.37860    0.32374    0.06580    1.000
    H358     H        0.38220    0.30820    0.10580    1.000
    C322     C        0.40129    0.34845    0.05310    1.000
    H359     H        0.42010    0.34980    0.08510    1.000
    C323     C        0.39694    0.37102    0.99500    1.000
    H360     H        0.41240    0.38800    0.98700    1.000
    C324     C        0.37005    0.36842    0.94900    1.000
    H361     H        0.36720    0.38380    0.90850    1.000
    C325     C        0.34632    0.34398    0.95890    1.000
    C326     C        0.31772    0.34433    0.90620    1.000
    C327     C        0.24288    0.30808    0.89040    1.000
    C328     C        0.21015    0.31090    0.85200    1.000
    H362     H        0.20280    0.28890    0.83530    1.000
    H363     H        0.21220    0.32480    0.80530    1.000
    C329     C        0.18464    0.32574    0.90630    1.000
    H364     H        0.16270    0.32350    0.88260    1.000
    H365     H        0.18460    0.31340    0.95550    1.000
    C330     C        0.19119    0.36165    0.92340    1.000
    H366     H        0.19150    0.37400    0.87420    1.000
    H367     H        0.21300    0.36380    0.94760    1.000
    C331     C        0.16545    0.37690    0.97730    1.000
    H368     H        0.14350    0.37470    0.95350    1.000
    H369     H        0.16530    0.36490    0.02710    1.000
    C332     C        0.17280    0.41310    0.99210    1.000
    H370     H        0.19630    0.41580    0.00210    1.000
    H371     H        0.16040    0.42060    0.03700    1.000
    H372     H        0.16660    0.42590    0.94660    1.000
    C333     C        0.23272    0.31485    0.10610    1.000
    H373     H        0.22540    0.29320    0.09600    1.000
    C334     C        0.21240    0.33570    0.14650    1.000
    H374     H        0.19160    0.32840    0.16390    1.000
    C335     C        0.22280    0.36758    0.16150    1.000
    C336     C        0.25295    0.37539    0.13660    1.000
    H375     H        0.26130    0.39660    0.14760    1.000
    C337     C        0.27219    0.35400    0.09590    1.000
    H376     H        0.29310    0.36080    0.07800    1.000
    C338     C        0.20110    0.39021    0.20770    1.000
    H377     H        0.20900    0.41290    0.20120    1.000
    H378     H        0.17860    0.38910    0.18680    1.000
    Mn21     Mn       0.22013    0.13710    0.72275    1.000
    O61      O        0.24169    0.10081    0.68288    1.000
    O62      O        0.29845    0.13241    0.87546    1.000
    O63      O        0.20326    0.17503    0.77602    1.000
    N54      N        0.25505    0.14378    0.79830    1.000
    N55      N        0.25065    0.17187    0.84460    1.000
    N56      N        0.14432    0.44141    0.44310    1.000
    C339     C        0.26595    0.08412    0.71330    1.000
    C340     C        0.27292    0.05363    0.67890    1.000
    H379     H        0.26040    0.04650    0.63590    1.000
    C341     C        0.29765    0.03402    0.70690    1.000
    H380     H        0.30170    0.01340    0.68360    1.000
    C342     C        0.31666    0.04410    0.76850    1.000
    H381     H        0.33390    0.03070    0.78690    1.000
    C343     C        0.31044    0.07346    0.80260    1.000
    H382     H        0.32370    0.08030    0.84470    1.000
    C344     C        0.28505    0.09383    0.77720    1.000
    C345     C        0.27962    0.12479    0.81810    1.000
    C346     C        0.22314    0.18603    0.82780    1.000
    C347     C        0.21221    0.21509    0.87350    1.000
    H383     H        0.23100    0.22410    0.90250    1.000
    H384     H        0.20420    0.23220    0.83770    1.000
    C348     C        0.18390    0.20560    0.93230    1.000
    H385     H        0.16460    0.19820    0.90260    1.000
    H386     H        0.19130    0.18700    0.96450    1.000
    C349     C        0.17290    0.23540    0.98900    1.000
    H387     H        0.16220    0.25280    0.95820    1.000
    H388     H        0.19250    0.24500    0.01400    1.000
    C350     C        0.15260    0.22480    0.04240    1.000
    H389     H        0.13190    0.21620    0.02060    1.000
    H390     H        0.16260    0.20840    0.07730    1.000
    C351     C        0.14820    0.26130    0.08380    1.000
    H391     H        0.16940    0.27230    0.08650    1.000
    H392     H        0.13310    0.27460    0.05300    1.000
    H393     H        0.13940    0.25860    0.13610    1.000
    C352     C        0.13941    0.44359    0.36670    1.000
    H394     H        0.12320    0.45840    0.34840    1.000
    C353     C        0.15655    0.42564    0.31340    1.000
    H395     H        0.15210    0.42790    0.25980    1.000
    C354     C        0.18061    0.40407    0.33910    1.000
    C355     C        0.18601    0.40251    0.41730    1.000
    H396     H        0.20240    0.38840    0.43740    1.000
    C356     C        0.16773    0.42138    0.46640    1.000
    H397     H        0.17210    0.42000    0.52030    1.000
    C357     C        0.20030    0.38300    0.28420    1.000
    H398     H        0.22310    0.38290    0.30300    1.000
    H399     H        0.19200    0.36030    0.28920    1.000
    Mn22     Mn       0.79115    0.67354    0.43184    1.000
    O64      O        0.76400    0.65502    0.50670    1.000
    O65      O        0.77560    0.75450    0.57103    1.000
    O66      O        0.81736    0.69942    0.36152    1.000
    N57      N        0.78665    0.71597    0.48000    1.000
    N58      N        0.80219    0.74180    0.43940    1.000
    C358     C        0.75088    0.66818    0.56950    1.000
    C359     C        0.73022    0.64824    0.61490    1.000
    H400     H        0.72530    0.62660    0.59850    1.000
    C360     C        0.71732    0.65987    0.68230    1.000
    H401     H        0.70400    0.64580    0.71260    1.000
    C361     C        0.72284    0.69115    0.70780    1.000
    H402     H        0.71390    0.69860    0.75530    1.000
    C362     C        0.74192    0.71161    0.66220    1.000
    H403     H        0.74590    0.73340    0.67910    1.000
    C363     C        0.75544    0.70123    0.59250    1.000
    C364     C        0.77348    0.72518    0.54600    1.000
    C365     C        0.81693    0.73052    0.37830    1.000
    C366     C        0.83442    0.75341    0.32500    1.000
    H404     H        0.83220    0.77600    0.34470    1.000
    H405     H        0.82410    0.75250    0.27320    1.000
    C367     C        0.87024    0.74507    0.31750    1.000
    H406     H        0.88020    0.75890    0.27690    1.000
    H407     H        0.87250    0.72200    0.30150    1.000
    C368     C        0.88848    0.75033    0.39350    1.000
    H408     H        0.88450    0.77290    0.41190    1.000
    H409     H        0.87970    0.73510    0.43280    1.000
    C369     C        0.92500    0.74500    0.38580    1.000
    H410     H        0.92900    0.72230    0.36850    1.000
    H411     H        0.93360    0.75990    0.34560    1.000
    C370     C        0.94300    0.75080    0.45940    1.000
    H412     H        0.94880    0.77400    0.46330    1.000
    H413     H        0.96290    0.73750    0.46010    1.000
    H414     H        0.92900    0.74470    0.50320    1.000
    Mn23     Mn       0.78807    0.78940    0.49670    1.000
    O67      O        0.82945    0.79772    0.53670    1.000
    O68      O        0.81698    0.86474    0.35026    1.000
    O69      O        0.74633    0.78661    0.44429    1.000
    N59      N        0.79364    0.82373    0.42060    1.000
    N60      N        0.76611    0.82847    0.37180    1.000
    N61      N        0.76173    0.82350    0.58120    1.000
    C371     C        0.85023    0.82156    0.51970    1.000
    C372     C        0.87860    0.82374    0.56580    1.000
    H415     H        0.88220    0.80820    0.60580    1.000
    C373     C        0.90129    0.84845    0.55310    1.000
    H416     H        0.92010    0.84980    0.58510    1.000
    C374     C        0.89694    0.87102    0.49500    1.000
    H417     H        0.91240    0.88800    0.48700    1.000
    C375     C        0.87005    0.86842    0.44900    1.000
    H418     H        0.86720    0.88380    0.40850    1.000
    C376     C        0.84632    0.84398    0.45890    1.000
    C377     C        0.81772    0.84433    0.40620    1.000
    C378     C        0.74288    0.80808    0.39040    1.000
    C379     C        0.71015    0.81090    0.35200    1.000
    H419     H        0.70280    0.78890    0.33530    1.000
    H420     H        0.71220    0.82480    0.30530    1.000
    C380     C        0.68464    0.82574    0.40630    1.000
    H421     H        0.66270    0.82350    0.38260    1.000
    H422     H        0.68460    0.81340    0.45550    1.000
    C381     C        0.69119    0.86165    0.42340    1.000
    H423     H        0.69150    0.87400    0.37420    1.000
    H424     H        0.71300    0.86380    0.44760    1.000
    C382     C        0.66545    0.87690    0.47730    1.000
    H425     H        0.64350    0.87470    0.45350    1.000
    H426     H        0.66530    0.86490    0.52710    1.000
    C383     C        0.67280    0.91310    0.49210    1.000
    H427     H        0.69630    0.91580    0.50210    1.000
    H428     H        0.66040    0.92060    0.53700    1.000
    H429     H        0.66660    0.92590    0.44660    1.000
    C384     C        0.73272    0.81485    0.60610    1.000
    H430     H        0.72540    0.79320    0.59600    1.000
    C385     C        0.71240    0.83570    0.64650    1.000
    H431     H        0.69160    0.82840    0.66390    1.000
    C386     C        0.72280    0.86758    0.66150    1.000
    C387     C        0.75295    0.87539    0.63660    1.000
    H432     H        0.76130    0.89660    0.64760    1.000
    C388     C        0.77219    0.85400    0.59590    1.000
    H433     H        0.79310    0.86080    0.57800    1.000
    C389     C        0.70110    0.89021    0.70770    1.000
    H434     H        0.70900    0.91290    0.70120    1.000
    H435     H        0.67860    0.88910    0.68680    1.000
    Mn24     Mn       0.72013    0.63710    0.22275    1.000
    O70      O        0.74169    0.60081    0.18288    1.000
    O71      O        0.79845    0.63241    0.37546    1.000
    O72      O        0.70326    0.67503    0.27602    1.000
    N62      N        0.75505    0.64378    0.29830    1.000
    N63      N        0.75065    0.67187    0.34460    1.000
    N64      N        0.64432    0.94141    0.94310    1.000
    C390     C        0.76595    0.58412    0.21330    1.000
    C391     C        0.77292    0.55363    0.17890    1.000
    H436     H        0.76040    0.54650    0.13590    1.000
    C392     C        0.79765    0.53402    0.20690    1.000
    H437     H        0.80170    0.51340    0.18360    1.000
    C393     C        0.81666    0.54410    0.26850    1.000
    H438     H        0.83390    0.53070    0.28690    1.000
    C394     C        0.81044    0.57346    0.30260    1.000
    H439     H        0.82370    0.58030    0.34470    1.000
    C395     C        0.78505    0.59383    0.27720    1.000
    C396     C        0.77962    0.62479    0.31810    1.000
    C397     C        0.72314    0.68603    0.32780    1.000
    C398     C        0.71221    0.71509    0.37350    1.000
    H440     H        0.73100    0.72410    0.40250    1.000
    H441     H        0.70420    0.73220    0.33770    1.000
    C399     C        0.68390    0.70560    0.43230    1.000
    H442     H        0.66460    0.69820    0.40260    1.000
    H443     H        0.69130    0.68700    0.46450    1.000
    C400     C        0.67290    0.73540    0.48900    1.000
    H444     H        0.66220    0.75280    0.45820    1.000
    H445     H        0.69250    0.74500    0.51400    1.000
    C401     C        0.65260    0.72480    0.54240    1.000
    H446     H        0.63190    0.71620    0.52060    1.000
    H447     H        0.66260    0.70840    0.57730    1.000
    C402     C        0.64820    0.76130    0.58380    1.000
    H448     H        0.66940    0.77230    0.58650    1.000
    H449     H        0.63310    0.77460    0.55300    1.000
    H450     H        0.63940    0.75860    0.63610    1.000
    C403     C        0.63941    0.94359    0.86670    1.000
    H451     H        0.62320    0.95840    0.84840    1.000
    C404     C        0.65655    0.92564    0.81340    1.000
    H452     H        0.65210    0.92790    0.75980    1.000
    C405     C        0.68061    0.90407    0.83910    1.000
    C406     C        0.68601    0.90251    0.91730    1.000
    H453     H        0.70240    0.88840    0.93740    1.000
    C407     C        0.66773    0.92138    0.96640    1.000
    H454     H        0.67210    0.92000    0.02030    1.000
    C408     C        0.70030    0.88300    0.78420    1.000
    H455     H        0.72310    0.88290    0.80300    1.000
    H456     H        0.69200    0.86030    0.78920    1.000
    Mn25     Mn       0.42354    0.45885    0.81816    1.000
    O73      O        0.40502    0.48600    0.74330    1.000
    O74      O        0.50450    0.47440    0.67897    1.000
    O75      O        0.44942    0.43264    0.88848    1.000
    N65      N        0.46597    0.46335    0.77000    1.000
    N66      N        0.49180    0.44781    0.81060    1.000
    C409     C        0.41818    0.49912    0.68050    1.000
    C410     C        0.39824    0.51978    0.63510    1.000
    H457     H        0.37660    0.52470    0.65150    1.000
    C411     C        0.40987    0.53268    0.56770    1.000
    H458     H        0.39580    0.54600    0.53740    1.000
    C412     C        0.44115    0.52716    0.54220    1.000
    H459     H        0.44860    0.53610    0.49470    1.000
    C413     C        0.46161    0.50808    0.58780    1.000
    H460     H        0.48340    0.50410    0.57090    1.000
    C414     C        0.45123    0.49456    0.65750    1.000
    C415     C        0.47518    0.47652    0.70400    1.000
    C416     C        0.48052    0.43307    0.87170    1.000
    C417     C        0.50341    0.41558    0.92500    1.000
    H461     H        0.52600    0.41780    0.90530    1.000
    H462     H        0.50250    0.42590    0.97680    1.000
    C418     C        0.49507    0.37976    0.93250    1.000
    H463     H        0.50890    0.36980    0.97310    1.000
    H464     H        0.47200    0.37750    0.94850    1.000
    C419     C        0.50033    0.36152    0.85650    1.000
    H465     H        0.52290    0.36550    0.83810    1.000
    H466     H        0.48510    0.37030    0.81720    1.000
    C420     C        0.49500    0.32500    0.86420    1.000
    H467     H        0.47230    0.32100    0.88150    1.000
    H468     H        0.50990    0.31640    0.90440    1.000
    C421     C        0.50080    0.30700    0.79060    1.000
    H469     H        0.52400    0.30120    0.78670    1.000
    H470     H        0.48750    0.28710    0.78990    1.000
    H471     H        0.49470    0.32100    0.74680    1.000
    Mn26     Mn       0.53940    0.46193    0.75330    1.000
    O76      O        0.54772    0.42055    0.71330    1.000
    O77      O        0.61474    0.43302    0.89974    1.000
    O78      O        0.53661    0.50367    0.80571    1.000
    N67      N        0.57373    0.45636    0.82940    1.000
    N68      N        0.57847    0.48389    0.87820    1.000
    N69      N        0.57350    0.48827    0.66880    1.000
    C422     C        0.57156    0.39977    0.73030    1.000
    C423     C        0.57374    0.37140    0.68420    1.000
    H472     H        0.55820    0.36780    0.64420    1.000
    C424     C        0.59845    0.34871    0.69690    1.000
    H473     H        0.59980    0.32990    0.66490    1.000
    C425     C        0.62102    0.35306    0.75500    1.000
    H474     H        0.63800    0.33760    0.76300    1.000
    C426     C        0.61842    0.37995    0.80100    1.000
    H475     H        0.63380    0.38280    0.84150    1.000
    C427     C        0.59398    0.40368    0.79110    1.000
    C428     C        0.59433    0.43228    0.84380    1.000
    C429     C        0.55808    0.50712    0.85960    1.000
    C430     C        0.56090    0.53985    0.89800    1.000
    H476     H        0.53890    0.54720    0.91470    1.000
    H477     H        0.57480    0.53780    0.94470    1.000
    C431     C        0.57574    0.56536    0.84370    1.000
    H478     H        0.57350    0.58730    0.86740    1.000
    H479     H        0.56340    0.56540    0.79450    1.000
    C432     C        0.61165    0.55881    0.82660    1.000
    H480     H        0.62400    0.55850    0.87580    1.000
    H481     H        0.61380    0.53700    0.80240    1.000
    C433     C        0.62690    0.58455    0.77270    1.000
    H482     H        0.62470    0.60650    0.79650    1.000
    H483     H        0.61490    0.58470    0.72290    1.000
    C434     C        0.66310    0.57720    0.75790    1.000
    H484     H        0.66580    0.55370    0.74790    1.000
    H485     H        0.67060    0.58960    0.71300    1.000
    H486     H        0.67590    0.58340    0.80340    1.000
    C435     C        0.56485    0.51728    0.64390    1.000
    H487     H        0.54320    0.52460    0.65400    1.000
    C436     C        0.58570    0.53760    0.60350    1.000
    H488     H        0.57840    0.55840    0.58610    1.000
    C437     C        0.61758    0.52720    0.58850    1.000
    C438     C        0.62539    0.49705    0.61340    1.000
    H489     H        0.64660    0.48870    0.60240    1.000
    C439     C        0.60400    0.47781    0.65410    1.000
    H490     H        0.61080    0.45690    0.67200    1.000
    C440     C        0.64021    0.54890    0.54230    1.000
    H491     H        0.66290    0.54100    0.54880    1.000
    H492     H        0.63910    0.57140    0.56320    1.000
    Mn27     Mn       0.38710    0.52987    0.02725    1.000
    O79      O        0.35081    0.50831    0.06712    1.000
    O80      O        0.38241    0.45155    0.87454    1.000
    O81      O        0.42503    0.54674    0.97398    1.000
    N70      N        0.39378    0.49495    0.95170    1.000
    N71      N        0.42187    0.49935    0.90540    1.000
    N72      N        0.69141    0.60568    0.30690    1.000
    C441     C        0.33412    0.48405    0.03670    1.000
    C442     C        0.30363    0.47708    0.07110    1.000
    H493     H        0.29650    0.48960    0.11410    1.000
    C443     C        0.28402    0.45235    0.04310    1.000
    H494     H        0.26340    0.44830    0.06640    1.000
    C444     C        0.29410    0.43334    0.98150    1.000
    H495     H        0.28070    0.41610    0.96310    1.000
    C445     C        0.32346    0.43956    0.94740    1.000
    H496     H        0.33030    0.42630    0.90530    1.000
    C446     C        0.34383    0.46495    0.97280    1.000
    C447     C        0.37479    0.47038    0.93190    1.000
    C448     C        0.43603    0.52686    0.92220    1.000
    C449     C        0.46509    0.53779    0.87650    1.000
    H497     H        0.47410    0.51900    0.84750    1.000
    H498     H        0.48220    0.54580    0.91230    1.000
    C450     C        0.45560    0.56610    0.81770    1.000
    H499     H        0.44820    0.58540    0.84740    1.000
    H500     H        0.43700    0.55870    0.78550    1.000
    C451     C        0.48540    0.57710    0.76100    1.000
    H501     H        0.50280    0.58780    0.79180    1.000
    H502     H        0.49500    0.55750    0.73600    1.000
    C452     C        0.47480    0.59740    0.70760    1.000
    H503     H        0.46620    0.61810    0.72940    1.000
    H504     H        0.45840    0.58740    0.67270    1.000
    C453     C        0.51130    0.60180    0.66620    1.000
    H505     H        0.52230    0.58060    0.66350    1.000
    H506     H        0.52460    0.61690    0.69700    1.000
    H507     H        0.50860    0.61060    0.61390    1.000
    C454     C        0.69359    0.61059    0.38330    1.000
    H508     H        0.70840    0.62680    0.40160    1.000
    C455     C        0.67564    0.59345    0.43660    1.000
    H509     H        0.67790    0.59790    0.49020    1.000
    C456     C        0.65407    0.56939    0.41090    1.000
    C457     C        0.65251    0.56399    0.33270    1.000
    H510     H        0.63840    0.54760    0.31260    1.000
    C458     C        0.67138    0.58227    0.28360    1.000
    H511     H        0.67000    0.57790    0.22970    1.000
    C459     C        0.63300    0.54970    0.46580    1.000
    H512     H        0.63290    0.52690    0.44700    1.000
    H513     H        0.61030    0.55800    0.46080    1.000
    Mn28     Mn       0.92354    0.95885    0.31816    1.000
    O82      O        0.90502    0.98600    0.24330    1.000
    O83      O        0.00450    0.97440    0.17897    1.000
    O84      O        0.94942    0.93264    0.38848    1.000
    N73      N        0.96597    0.96335    0.27000    1.000
    N74      N        0.99180    0.94781    0.31060    1.000
    C460     C        0.91818    0.99912    0.18050    1.000
    C461     C        0.89824    0.01978    0.13510    1.000
    H514     H        0.87660    0.02470    0.15150    1.000
    C462     C        0.90987    0.03268    0.06770    1.000
    H515     H        0.89580    0.04600    0.03740    1.000
    C463     C        0.94115    0.02716    0.04220    1.000
    H516     H        0.94860    0.03610    0.99470    1.000
    C464     C        0.96161    0.00808    0.08780    1.000
    H517     H        0.98340    0.00410    0.07090    1.000
    C465     C        0.95123    0.99456    0.15750    1.000
    C466     C        0.97518    0.97652    0.20400    1.000
    C467     C        0.98052    0.93307    0.37170    1.000
    C468     C        0.00341    0.91558    0.42500    1.000
    H518     H        0.02600    0.91780    0.40530    1.000
    H519     H        0.00250    0.92590    0.47680    1.000
    C469     C        0.99507    0.87976    0.43250    1.000
    H520     H        0.00890    0.86980    0.47310    1.000
    H521     H        0.97200    0.87750    0.44850    1.000
    C470     C        0.00033    0.86152    0.35650    1.000
    H522     H        0.02290    0.86550    0.33810    1.000
    H523     H        0.98510    0.87030    0.31720    1.000
    C471     C        0.99500    0.82500    0.36420    1.000
    H524     H        0.97230    0.82100    0.38150    1.000
    H525     H        0.00990    0.81640    0.40440    1.000
    C472     C        0.00080    0.80700    0.29060    1.000
    H526     H        0.02400    0.80120    0.28670    1.000
    H527     H        0.98750    0.78710    0.28990    1.000
    H528     H        0.99470    0.82100    0.24680    1.000
    Mn29     Mn       0.03940    0.96193    0.25330    1.000
    O85      O        0.04772    0.92055    0.21330    1.000
    O86      O        0.11474    0.93302    0.39974    1.000
    O87      O        0.03661    0.00367    0.30571    1.000
    N75      N        0.07373    0.95636    0.32940    1.000
    N76      N        0.07847    0.98389    0.37820    1.000
    N77      N        0.07350    0.98827    0.16880    1.000
    C473     C        0.07156    0.89977    0.23030    1.000
    C474     C        0.07374    0.87140    0.18420    1.000
    H529     H        0.05820    0.86780    0.14420    1.000
    C475     C        0.09845    0.84871    0.19690    1.000
    H530     H        0.09980    0.82990    0.16490    1.000
    C476     C        0.12102    0.85306    0.25500    1.000
    H531     H        0.13800    0.83760    0.26300    1.000
    C477     C        0.11842    0.87995    0.30100    1.000
    H532     H        0.13380    0.88280    0.34150    1.000
    C478     C        0.09398    0.90368    0.29110    1.000
    C479     C        0.09433    0.93228    0.34380    1.000
    C480     C        0.05808    0.00712    0.35960    1.000
    C481     C        0.06090    0.03985    0.39800    1.000
    H533     H        0.03890    0.04720    0.41470    1.000
    H534     H        0.07480    0.03780    0.44470    1.000
    C482     C        0.07574    0.06536    0.34370    1.000
    H535     H        0.07350    0.08730    0.36740    1.000
    H536     H        0.06340    0.06540    0.29450    1.000
    C483     C        0.11165    0.05881    0.32660    1.000
    H537     H        0.12400    0.05850    0.37580    1.000
    H538     H        0.11380    0.03700    0.30240    1.000
    C484     C        0.12690    0.08455    0.27270    1.000
    H539     H        0.12470    0.10650    0.29650    1.000
    H540     H        0.11490    0.08470    0.22290    1.000
    C485     C        0.16310    0.07720    0.25790    1.000
    H541     H        0.16580    0.05370    0.24790    1.000
    H542     H        0.17060    0.08960    0.21300    1.000
    H543     H        0.17590    0.08340    0.30340    1.000
    C486     C        0.06485    0.01728    0.14390    1.000
    H544     H        0.04320    0.02460    0.15400    1.000
    C487     C        0.08570    0.03760    0.10350    1.000
    H545     H        0.07840    0.05840    0.08610    1.000
    C488     C        0.11758    0.02720    0.08850    1.000
    C489     C        0.12539    0.99705    0.11340    1.000
    H546     H        0.14660    0.98870    0.10240    1.000
    C490     C        0.10400    0.97781    0.15410    1.000
    H547     H        0.11080    0.95690    0.17200    1.000
    C491     C        0.14021    0.04890    0.04230    1.000
    H548     H        0.16290    0.04100    0.04880    1.000
    H549     H        0.13910    0.07140    0.06320    1.000
    Mn30     Mn       0.88710    0.02987    0.52725    1.000
    O88      O        0.85081    0.00831    0.56712    1.000
    O89      O        0.88241    0.95155    0.37454    1.000
    O90      O        0.92503    0.04674    0.47398    1.000
    N78      N        0.89378    0.99495    0.45170    1.000
    N79      N        0.92187    0.99935    0.40540    1.000
    N80      N        0.19141    0.10568    0.80690    1.000
    C492     C        0.83412    0.98405    0.53670    1.000
    C493     C        0.80363    0.97708    0.57110    1.000
    H550     H        0.79650    0.98960    0.61410    1.000
    C494     C        0.78402    0.95235    0.54310    1.000
    H551     H        0.76340    0.94830    0.56640    1.000
    C495     C        0.79410    0.93334    0.48150    1.000
    H552     H        0.78070    0.91610    0.46310    1.000
    C496     C        0.82346    0.93956    0.44740    1.000
    H553     H        0.83030    0.92630    0.40530    1.000
    C497     C        0.84383    0.96495    0.47280    1.000
    C498     C        0.87479    0.97038    0.43190    1.000
    C499     C        0.93603    0.02686    0.42220    1.000
    C500     C        0.96509    0.03779    0.37650    1.000
    H554     H        0.97410    0.01900    0.34750    1.000
    H555     H        0.98220    0.04580    0.41230    1.000
    C501     C        0.95560    0.06610    0.31770    1.000
    H556     H        0.94820    0.08540    0.34740    1.000
    H557     H        0.93700    0.05870    0.28550    1.000
    C502     C        0.98540    0.07710    0.26100    1.000
    H558     H        0.00280    0.08780    0.29180    1.000
    H559     H        0.99500    0.05750    0.23600    1.000
    C503     C        0.97480    0.09740    0.20760    1.000
    H560     H        0.96620    0.11810    0.22940    1.000
    H561     H        0.95840    0.08740    0.17270    1.000
    C504     C        0.01130    0.10180    0.16620    1.000
    H562     H        0.02230    0.08060    0.16350    1.000
    H563     H        0.02460    0.11690    0.19700    1.000
    H564     H        0.00860    0.11060    0.11390    1.000
    C505     C        0.19359    0.11059    0.88330    1.000
    H565     H        0.20840    0.12680    0.90160    1.000
    C506     C        0.17564    0.09345    0.93660    1.000
    H566     H        0.17790    0.09790    0.99020    1.000
    C507     C        0.15407    0.06939    0.91090    1.000
    C508     C        0.15251    0.06399    0.83270    1.000
    H567     H        0.13840    0.04760    0.81260    1.000
    C509     C        0.17138    0.08227    0.78360    1.000
    H568     H        0.17000    0.07790    0.72970    1.000
    C510     C        0.13300    0.04970    0.96580    1.000
    H569     H        0.13290    0.02690    0.94700    1.000
    H570     H        0.11030    0.05800    0.96080    1.000
    Mn31     Mn       0.07646    0.54115    0.31816    1.000
    O91      O        0.09498    0.51400    0.24330    1.000
    O92      O        0.99550    0.52560    0.17897    1.000
    O93      O        0.05058    0.56736    0.38848    1.000
    N81      N        0.03403    0.53665    0.27000    1.000
    N82      N        0.00820    0.55219    0.31060    1.000
    C511     C        0.08182    0.50088    0.18050    1.000
    C512     C        0.10176    0.48022    0.13510    1.000
    H571     H        0.12340    0.47530    0.15150    1.000
    C513     C        0.09013    0.46732    0.06770    1.000
    H572     H        0.10420    0.45400    0.03740    1.000
    C514     C        0.05885    0.47284    0.04220    1.000
    H573     H        0.05140    0.46390    0.99470    1.000
    C515     C        0.03839    0.49192    0.08780    1.000
    H574     H        0.01660    0.49590    0.07090    1.000
    C516     C        0.04877    0.50544    0.15750    1.000
    C517     C        0.02482    0.52348    0.20400    1.000
    C518     C        0.01948    0.56693    0.37170    1.000
    C519     C        0.99659    0.58442    0.42500    1.000
    H575     H        0.97400    0.58220    0.40530    1.000
    H576     H        0.99750    0.57410    0.47680    1.000
    C520     C        0.00493    0.62024    0.43250    1.000
    H577     H        0.99110    0.63020    0.47310    1.000
    H578     H        0.02800    0.62250    0.44850    1.000
    C521     C        0.99967    0.63848    0.35650    1.000
    H579     H        0.97710    0.63450    0.33810    1.000
    H580     H        0.01490    0.62970    0.31720    1.000
    C522     C        0.00500    0.67500    0.36420    1.000
    H581     H        0.02770    0.67900    0.38150    1.000
    H582     H        0.99010    0.68360    0.40440    1.000
    C523     C        0.99920    0.69300    0.29060    1.000
    H583     H        0.97600    0.69880    0.28670    1.000
    H584     H        0.01250    0.71290    0.28990    1.000
    H585     H        0.00530    0.67900    0.24680    1.000
    Mn32     Mn       0.96060    0.53807    0.25330    1.000
    O94      O        0.95228    0.57945    0.21330    1.000
    O95      O        0.88526    0.56698    0.39974    1.000
    O96      O        0.96339    0.49633    0.30571    1.000
    N83      N        0.92627    0.54364    0.32940    1.000
    N84      N        0.92153    0.51611    0.37820    1.000
    N85      N        0.92650    0.51173    0.16880    1.000
    C524     C        0.92844    0.60023    0.23030    1.000
    C525     C        0.92626    0.62860    0.18420    1.000
    H586     H        0.94180    0.63220    0.14420    1.000
    C526     C        0.90155    0.65129    0.19690    1.000
    H587     H        0.90020    0.67010    0.16490    1.000
    C527     C        0.87898    0.64694    0.25500    1.000
    H588     H        0.86200    0.66240    0.26300    1.000
    C528     C        0.88158    0.62005    0.30100    1.000
    H589     H        0.86620    0.61720    0.34150    1.000
    C529     C        0.90602    0.59632    0.29110    1.000
    C530     C        0.90567    0.56772    0.34380    1.000
    C531     C        0.94192    0.49288    0.35960    1.000
    C532     C        0.93910    0.46015    0.39800    1.000
    H590     H        0.96110    0.45280    0.41470    1.000
    H591     H        0.92520    0.46220    0.44470    1.000
    C533     C        0.92426    0.43464    0.34370    1.000
    H592     H        0.92650    0.41270    0.36740    1.000
    H593     H        0.93660    0.43460    0.29450    1.000
    C534     C        0.88835    0.44119    0.32660    1.000
    H594     H        0.87600    0.44150    0.37580    1.000
    H595     H        0.88620    0.46300    0.30240    1.000
    C535     C        0.87310    0.41545    0.27270    1.000
    H596     H        0.87530    0.39350    0.29650    1.000
    H597     H        0.88510    0.41530    0.22290    1.000
    C536     C        0.83690    0.42280    0.25790    1.000
    H598     H        0.83420    0.44630    0.24790    1.000
    H599     H        0.82940    0.41040    0.21300    1.000
    H600     H        0.82410    0.41660    0.30340    1.000
    C537     C        0.93515    0.48272    0.14390    1.000
    H601     H        0.95680    0.47540    0.15400    1.000
    C538     C        0.91430    0.46240    0.10350    1.000
    H602     H        0.92160    0.44160    0.08610    1.000
    C539     C        0.88242    0.47280    0.08850    1.000
    C540     C        0.87461    0.50295    0.11340    1.000
    H603     H        0.85340    0.51130    0.10240    1.000
    C541     C        0.89600    0.52219    0.15410    1.000
    H604     H        0.88920    0.54310    0.17200    1.000
    C542     C        0.85979    0.45110    0.04230    1.000
    H605     H        0.83710    0.45900    0.04880    1.000
    H606     H        0.86090    0.42860    0.06320    1.000
    Mn33     Mn       0.11290    0.47013    0.52725    1.000
    O97      O        0.14919    0.49169    0.56712    1.000
    O98      O        0.11759    0.54845    0.37454    1.000
    O99      O        0.07497    0.45326    0.47398    1.000
    N86      N        0.10622    0.50505    0.45170    1.000
    N87      N        0.07813    0.50065    0.40540    1.000
    N88      N        0.80859    0.39432    0.80690    1.000
    C543     C        0.16588    0.51595    0.53670    1.000
    C544     C        0.19637    0.52292    0.57110    1.000
    H607     H        0.20350    0.51040    0.61410    1.000
    C545     C        0.21598    0.54765    0.54310    1.000
    H608     H        0.23660    0.55170    0.56640    1.000
    C546     C        0.20590    0.56666    0.48150    1.000
    H609     H        0.21930    0.58390    0.46310    1.000
    C547     C        0.17654    0.56044    0.44740    1.000
    H610     H        0.16970    0.57370    0.40530    1.000
    C548     C        0.15617    0.53505    0.47280    1.000
    C549     C        0.12521    0.52962    0.43190    1.000
    C550     C        0.06397    0.47314    0.42220    1.000
    C551     C        0.03491    0.46221    0.37650    1.000
    H611     H        0.02590    0.48100    0.34750    1.000
    H612     H        0.01780    0.45420    0.41230    1.000
    C552     C        0.04440    0.43390    0.31770    1.000
    H613     H        0.05180    0.41460    0.34740    1.000
    H614     H        0.06300    0.44130    0.28550    1.000
    C553     C        0.01460    0.42290    0.26100    1.000
    H615     H        0.99720    0.41220    0.29180    1.000
    H616     H        0.00500    0.44250    0.23600    1.000
    C554     C        0.02520    0.40260    0.20760    1.000
    H617     H        0.03380    0.38190    0.22940    1.000
    H618     H        0.04160    0.41260    0.17270    1.000
    C555     C        0.98870    0.39820    0.16620    1.000
    H619     H        0.97770    0.41940    0.16350    1.000
    H620     H        0.97540    0.38310    0.19700    1.000
    H621     H        0.99140    0.38940    0.11390    1.000
    C556     C        0.80641    0.38941    0.88330    1.000
    H622     H        0.79160    0.37320    0.90160    1.000
    C557     C        0.82436    0.40655    0.93660    1.000
    H623     H        0.82210    0.40210    0.99020    1.000
    C558     C        0.84593    0.43061    0.91090    1.000
    C559     C        0.84749    0.43601    0.83270    1.000
    H624     H        0.86160    0.45240    0.81260    1.000
    C560     C        0.82862    0.41773    0.78360    1.000
    H625     H        0.83000    0.42210    0.72970    1.000
    C561     C        0.86700    0.45030    0.96580    1.000
    H626     H        0.86710    0.47310    0.94700    1.000
    H627     H        0.88970    0.44200    0.96080    1.000
    Mn34     Mn       0.57646    0.04115    0.81816    1.000
    O100     O        0.59498    0.01400    0.74330    1.000
    O101     O        0.49550    0.02560    0.67897    1.000
    O102     O        0.55058    0.06736    0.88848    1.000
    N89      N        0.53403    0.03665    0.77000    1.000
    N90      N        0.50820    0.05219    0.81060    1.000
    C562     C        0.58182    0.00088    0.68050    1.000
    C563     C        0.60176    0.98022    0.63510    1.000
    H628     H        0.62340    0.97530    0.65150    1.000
    C564     C        0.59013    0.96732    0.56770    1.000
    H629     H        0.60420    0.95400    0.53740    1.000
    C565     C        0.55885    0.97284    0.54220    1.000
    H630     H        0.55140    0.96390    0.49470    1.000
    C566     C        0.53839    0.99192    0.58780    1.000
    H631     H        0.51660    0.99590    0.57090    1.000
    C567     C        0.54877    0.00544    0.65750    1.000
    C568     C        0.52482    0.02348    0.70400    1.000
    C569     C        0.51948    0.06693    0.87170    1.000
    C570     C        0.49659    0.08442    0.92500    1.000
    H632     H        0.47400    0.08220    0.90530    1.000
    H633     H        0.49750    0.07410    0.97680    1.000
    C571     C        0.50493    0.12024    0.93250    1.000
    H634     H        0.49110    0.13020    0.97310    1.000
    H635     H        0.52800    0.12250    0.94850    1.000
    C572     C        0.49967    0.13848    0.85650    1.000
    H636     H        0.47710    0.13450    0.83810    1.000
    H637     H        0.51490    0.12970    0.81720    1.000
    C573     C        0.50500    0.17500    0.86420    1.000
    H638     H        0.52770    0.17900    0.88150    1.000
    H639     H        0.49010    0.18360    0.90440    1.000
    C574     C        0.49920    0.19300    0.79060    1.000
    H640     H        0.47600    0.19880    0.78670    1.000
    H641     H        0.51250    0.21290    0.78990    1.000
    H642     H        0.50530    0.17900    0.74680    1.000
    Mn35     Mn       0.46060    0.03807    0.75330    1.000
    O103     O        0.45228    0.07945    0.71330    1.000
    O104     O        0.38526    0.06698    0.89974    1.000
    O105     O        0.46339    0.99633    0.80571    1.000
    N91      N        0.42627    0.04364    0.82940    1.000
    N92      N        0.42153    0.01611    0.87820    1.000
    N93      N        0.42650    0.01173    0.66880    1.000
    C575     C        0.42844    0.10023    0.73030    1.000
    C576     C        0.42626    0.12860    0.68420    1.000
    H643     H        0.44180    0.13220    0.64420    1.000
    C577     C        0.40155    0.15129    0.69690    1.000
    H644     H        0.40020    0.17010    0.66490    1.000
    C578     C        0.37898    0.14694    0.75500    1.000
    H645     H        0.36200    0.16240    0.76300    1.000
    C579     C        0.38158    0.12005    0.80100    1.000
    H646     H        0.36620    0.11720    0.84150    1.000
    C580     C        0.40602    0.09632    0.79110    1.000
    C581     C        0.40567    0.06772    0.84380    1.000
    C582     C        0.44192    0.99288    0.85960    1.000
    C583     C        0.43910    0.96015    0.89800    1.000
    H647     H        0.46110    0.95280    0.91470    1.000
    H648     H        0.42520    0.96220    0.94470    1.000
    C584     C        0.42426    0.93464    0.84370    1.000
    H649     H        0.42650    0.91270    0.86740    1.000
    H650     H        0.43660    0.93460    0.79450    1.000
    C585     C        0.38835    0.94119    0.82660    1.000
    H651     H        0.37600    0.94150    0.87580    1.000
    H652     H        0.38620    0.96300    0.80240    1.000
    C586     C        0.37310    0.91545    0.77270    1.000
    H653     H        0.37530    0.89350    0.79650    1.000
    H654     H        0.38510    0.91530    0.72290    1.000
    C587     C        0.33690    0.92280    0.75790    1.000
    H655     H        0.33420    0.94630    0.74790    1.000
    H656     H        0.32940    0.91040    0.71300    1.000
    H657     H        0.32410    0.91660    0.80340    1.000
    C588     C        0.43515    0.98272    0.64390    1.000
    H658     H        0.45680    0.97540    0.65400    1.000
    C589     C        0.41430    0.96240    0.60350    1.000
    H659     H        0.42160    0.94160    0.58610    1.000
    C590     C        0.38242    0.97280    0.58850    1.000
    C591     C        0.37461    0.00295    0.61340    1.000
    H660     H        0.35340    0.01130    0.60240    1.000
    C592     C        0.39600    0.02219    0.65410    1.000
    H661     H        0.38920    0.04310    0.67200    1.000
    C593     C        0.35979    0.95110    0.54230    1.000
    H662     H        0.33710    0.95900    0.54880    1.000
    H663     H        0.36090    0.92860    0.56320    1.000
    Mn36     Mn       0.61290    0.97013    0.02725    1.000
    O106     O        0.64919    0.99169    0.06712    1.000
    O107     O        0.61759    0.04845    0.87454    1.000
    O108     O        0.57497    0.95326    0.97398    1.000
    N94      N        0.60622    0.00505    0.95170    1.000
    N95      N        0.57813    0.00065    0.90540    1.000
    N96      N        0.30859    0.89432    0.30690    1.000
    C594     C        0.66588    0.01595    0.03670    1.000
    C595     C        0.69637    0.02292    0.07110    1.000
    H664     H        0.70350    0.01040    0.11410    1.000
    C596     C        0.71598    0.04765    0.04310    1.000
    H665     H        0.73660    0.05170    0.06640    1.000
    C597     C        0.70590    0.06666    0.98150    1.000
    H666     H        0.71930    0.08390    0.96310    1.000
    C598     C        0.67654    0.06044    0.94740    1.000
    H667     H        0.66970    0.07370    0.90530    1.000
    C599     C        0.65617    0.03505    0.97280    1.000
    C600     C        0.62521    0.02962    0.93190    1.000
    C601     C        0.56397    0.97314    0.92220    1.000
    C602     C        0.53491    0.96221    0.87650    1.000
    H668     H        0.52590    0.98100    0.84750    1.000
    H669     H        0.51780    0.95420    0.91230    1.000
    C603     C        0.54440    0.93390    0.81770    1.000
    H670     H        0.55180    0.91460    0.84740    1.000
    H671     H        0.56300    0.94130    0.78550    1.000
    C604     C        0.51460    0.92290    0.76100    1.000
    H672     H        0.49720    0.91220    0.79180    1.000
    H673     H        0.50500    0.94250    0.73600    1.000
    C605     C        0.52520    0.90260    0.70760    1.000
    H674     H        0.53380    0.88190    0.72940    1.000
    H675     H        0.54160    0.91260    0.67270    1.000
    C606     C        0.48870    0.89820    0.66620    1.000
    H676     H        0.47770    0.91940    0.66350    1.000
    H677     H        0.47540    0.88310    0.69700    1.000
    H678     H        0.49140    0.88940    0.61390    1.000
    C607     C        0.30641    0.88941    0.38330    1.000
    H679     H        0.29160    0.87320    0.40160    1.000
    C608     C        0.32436    0.90655    0.43660    1.000
    H680     H        0.32210    0.90210    0.49020    1.000
    C609     C        0.34593    0.93061    0.41090    1.000
    C610     C        0.34749    0.93601    0.33270    1.000
    H681     H        0.36160    0.95240    0.31260    1.000
    C611     C        0.32862    0.91773    0.28360    1.000
    H682     H        0.33000    0.92210    0.22970    1.000
    C612     C        0.36700    0.95030    0.46580    1.000
    H683     H        0.36710    0.97310    0.44700    1.000
    H684     H        0.38970    0.94200    0.46080    1.000
    Mn37     Mn       0.79115    0.17354    0.56816    1.000
    O109     O        0.76400    0.15502    0.49330    1.000
    O110     O        0.77560    0.25450    0.42897    1.000
    O111     O        0.81736    0.19942    0.63848    1.000
    N97      N        0.78665    0.21597    0.52000    1.000
    N98      N        0.80219    0.24180    0.56060    1.000
    C613     C        0.75088    0.16818    0.43050    1.000
    C614     C        0.73022    0.14824    0.38510    1.000
    H685     H        0.72530    0.12660    0.40150    1.000
    C615     C        0.71732    0.15987    0.31770    1.000
    H686     H        0.70400    0.14580    0.28740    1.000
    C616     C        0.72284    0.19115    0.29220    1.000
    H687     H        0.71390    0.19860    0.24470    1.000
    C617     C        0.74192    0.21161    0.33780    1.000
    H688     H        0.74590    0.23340    0.32090    1.000
    C618     C        0.75544    0.20123    0.40750    1.000
    C619     C        0.77348    0.22518    0.45400    1.000
    C620     C        0.81693    0.23052    0.62170    1.000
    C621     C        0.83442    0.25341    0.67500    1.000
    H689     H        0.83220    0.27600    0.65530    1.000
    H690     H        0.82410    0.25250    0.72680    1.000
    C622     C        0.87024    0.24507    0.68250    1.000
    H691     H        0.88020    0.25890    0.72310    1.000
    H692     H        0.87250    0.22200    0.69850    1.000
    C623     C        0.88848    0.25033    0.60650    1.000
    H693     H        0.88450    0.27290    0.58810    1.000
    H694     H        0.87970    0.23510    0.56720    1.000
    C624     C        0.92500    0.24500    0.61420    1.000
    H695     H        0.92900    0.22230    0.63150    1.000
    H696     H        0.93360    0.25990    0.65440    1.000
    C625     C        0.94300    0.25080    0.54060    1.000
    H697     H        0.94880    0.27400    0.53670    1.000
    H698     H        0.96290    0.23750    0.53990    1.000
    H699     H        0.92900    0.24470    0.49680    1.000
    Mn38     Mn       0.78807    0.28940    0.50330    1.000
    O112     O        0.82945    0.29772    0.46330    1.000
    O113     O        0.81698    0.36474    0.64974    1.000
    O114     O        0.74633    0.28661    0.55571    1.000
    N99      N        0.79364    0.32373    0.57940    1.000
    N100     N        0.76611    0.32847    0.62820    1.000
    N101     N        0.76173    0.32350    0.41880    1.000
    C626     C        0.85023    0.32156    0.48030    1.000
    C627     C        0.87860    0.32374    0.43420    1.000
    H700     H        0.88220    0.30820    0.39420    1.000
    C628     C        0.90129    0.34845    0.44690    1.000
    H701     H        0.92010    0.34980    0.41490    1.000
    C629     C        0.89694    0.37102    0.50500    1.000
    H702     H        0.91240    0.38800    0.51300    1.000
    C630     C        0.87005    0.36842    0.55100    1.000
    H703     H        0.86720    0.38380    0.59150    1.000
    C631     C        0.84632    0.34398    0.54110    1.000
    C632     C        0.81772    0.34433    0.59380    1.000
    C633     C        0.74288    0.30808    0.60960    1.000
    C634     C        0.71015    0.31090    0.64800    1.000
    H704     H        0.70280    0.28890    0.66470    1.000
    H705     H        0.71220    0.32480    0.69470    1.000
    C635     C        0.68464    0.32574    0.59370    1.000
    H706     H        0.66270    0.32350    0.61740    1.000
    H707     H        0.68460    0.31340    0.54450    1.000
    C636     C        0.69119    0.36165    0.57660    1.000
    H708     H        0.69150    0.37400    0.62580    1.000
    H709     H        0.71300    0.36380    0.55240    1.000
    C637     C        0.66545    0.37690    0.52270    1.000
    H710     H        0.64350    0.37470    0.54650    1.000
    H711     H        0.66530    0.36490    0.47290    1.000
    C638     C        0.67280    0.41310    0.50790    1.000
    H712     H        0.69630    0.41580    0.49790    1.000
    H713     H        0.66040    0.42060    0.46300    1.000
    H714     H        0.66660    0.42590    0.55340    1.000
    C639     C        0.73272    0.31485    0.39390    1.000
    H715     H        0.72540    0.29320    0.40400    1.000
    C640     C        0.71240    0.33570    0.35350    1.000
    H716     H        0.69160    0.32840    0.33610    1.000
    C641     C        0.72280    0.36758    0.33850    1.000
    C642     C        0.75295    0.37539    0.36340    1.000
    H717     H        0.76130    0.39660    0.35240    1.000
    C643     C        0.77219    0.35400    0.40410    1.000
    H718     H        0.79310    0.36080    0.42200    1.000
    C644     C        0.70110    0.39021    0.29230    1.000
    H719     H        0.70900    0.41290    0.29880    1.000
    H720     H        0.67860    0.38910    0.31320    1.000
    Mn39     Mn       0.72013    0.13710    0.77725    1.000
    O115     O        0.74169    0.10081    0.81712    1.000
    O116     O        0.79845    0.13241    0.62454    1.000
    O117     O        0.70326    0.17503    0.72398    1.000
    N102     N        0.75505    0.14378    0.70170    1.000
    N103     N        0.75065    0.17187    0.65540    1.000
    N104     N        0.64432    0.44141    0.05690    1.000
    C645     C        0.76595    0.08412    0.78670    1.000
    C646     C        0.77292    0.05363    0.82110    1.000
    H721     H        0.76040    0.04650    0.86410    1.000
    C647     C        0.79765    0.03402    0.79310    1.000
    H722     H        0.80170    0.01340    0.81640    1.000
    C648     C        0.81666    0.04410    0.73150    1.000
    H723     H        0.83390    0.03070    0.71310    1.000
    C649     C        0.81044    0.07346    0.69740    1.000
    H724     H        0.82370    0.08030    0.65530    1.000
    C650     C        0.78505    0.09383    0.72280    1.000
    C651     C        0.77962    0.12479    0.68190    1.000
    C652     C        0.72314    0.18603    0.67220    1.000
    C653     C        0.71221    0.21509    0.62650    1.000
    H725     H        0.73100    0.22410    0.59750    1.000
    H726     H        0.70420    0.23220    0.66230    1.000
    C654     C        0.68390    0.20560    0.56770    1.000
    H727     H        0.66460    0.19820    0.59740    1.000
    H728     H        0.69130    0.18700    0.53550    1.000
    C655     C        0.67290    0.23540    0.51100    1.000
    H729     H        0.66220    0.25280    0.54180    1.000
    H730     H        0.69250    0.24500    0.48600    1.000
    C656     C        0.65260    0.22480    0.45760    1.000
    H731     H        0.63190    0.21620    0.47940    1.000
    H732     H        0.66260    0.20840    0.42270    1.000
    C657     C        0.64820    0.26130    0.41620    1.000
    H733     H        0.66940    0.27230    0.41350    1.000
    H734     H        0.63310    0.27460    0.44700    1.000
    H735     H        0.63940    0.25860    0.36390    1.000
    C658     C        0.63941    0.44359    0.13330    1.000
    H736     H        0.62320    0.45840    0.15160    1.000
    C659     C        0.65655    0.42564    0.18660    1.000
    H737     H        0.65210    0.42790    0.24020    1.000
    C660     C        0.68061    0.40407    0.16090    1.000
    C661     C        0.68601    0.40251    0.08270    1.000
    H738     H        0.70240    0.38840    0.06260    1.000
    C662     C        0.66773    0.42138    0.03360    1.000
    H739     H        0.67210    0.42000    0.97970    1.000
    C663     C        0.70030    0.38300    0.21580    1.000
    H740     H        0.72310    0.38290    0.19700    1.000
    H741     H        0.69200    0.36030    0.21080    1.000
    Mn40     Mn       0.29115    0.67354    0.06816    1.000
    O118     O        0.26400    0.65502    0.99330    1.000
    O119     O        0.27560    0.75450    0.92897    1.000
    O120     O        0.31736    0.69942    0.13848    1.000
    N105     N        0.28665    0.71597    0.02000    1.000
    N106     N        0.30219    0.74180    0.06060    1.000
    C664     C        0.25088    0.66818    0.93050    1.000
    C665     C        0.23022    0.64824    0.88510    1.000
    H742     H        0.22530    0.62660    0.90150    1.000
    C666     C        0.21732    0.65987    0.81770    1.000
    H743     H        0.20400    0.64580    0.78740    1.000
    C667     C        0.22284    0.69115    0.79220    1.000
    H744     H        0.21390    0.69860    0.74470    1.000
    C668     C        0.24192    0.71161    0.83780    1.000
    H745     H        0.24590    0.73340    0.82090    1.000
    C669     C        0.25544    0.70123    0.90750    1.000
    C670     C        0.27348    0.72518    0.95400    1.000
    C671     C        0.31693    0.73052    0.12170    1.000
    C672     C        0.33442    0.75341    0.17500    1.000
    H746     H        0.33220    0.77600    0.15530    1.000
    H747     H        0.32410    0.75250    0.22680    1.000
    C673     C        0.37024    0.74507    0.18250    1.000
    H748     H        0.38020    0.75890    0.22310    1.000
    H749     H        0.37250    0.72200    0.19850    1.000
    C674     C        0.38848    0.75033    0.10650    1.000
    H750     H        0.38450    0.77290    0.08810    1.000
    H751     H        0.37970    0.73510    0.06720    1.000
    C675     C        0.42500    0.74500    0.11420    1.000
    H752     H        0.42900    0.72230    0.13150    1.000
    H753     H        0.43360    0.75990    0.15440    1.000
    C676     C        0.44300    0.75080    0.04060    1.000
    H754     H        0.44880    0.77400    0.03670    1.000
    H755     H        0.46290    0.73750    0.03990    1.000
    H756     H        0.42900    0.74470    0.99680    1.000
    Mn41     Mn       0.28807    0.78940    0.00330    1.000
    O121     O        0.32945    0.79772    0.96330    1.000
    O122     O        0.31698    0.86474    0.14974    1.000
    O123     O        0.24633    0.78661    0.05571    1.000
    N107     N        0.29364    0.82373    0.07940    1.000
    N108     N        0.26611    0.82847    0.12820    1.000
    N109     N        0.26173    0.82350    0.91880    1.000
    C677     C        0.35023    0.82156    0.98030    1.000
    C678     C        0.37860    0.82374    0.93420    1.000
    H757     H        0.38220    0.80820    0.89420    1.000
    C679     C        0.40129    0.84845    0.94690    1.000
    H758     H        0.42010    0.84980    0.91490    1.000
    C680     C        0.39694    0.87102    0.00500    1.000
    H759     H        0.41240    0.88800    0.01300    1.000
    C681     C        0.37005    0.86842    0.05100    1.000
    H760     H        0.36720    0.88380    0.09150    1.000
    C682     C        0.34632    0.84398    0.04110    1.000
    C683     C        0.31772    0.84433    0.09380    1.000
    C684     C        0.24288    0.80808    0.10960    1.000
    C685     C        0.21015    0.81090    0.14800    1.000
    H761     H        0.20280    0.78890    0.16470    1.000
    H762     H        0.21220    0.82480    0.19470    1.000
    C686     C        0.18464    0.82574    0.09370    1.000
    H763     H        0.16270    0.82350    0.11740    1.000
    H764     H        0.18460    0.81340    0.04450    1.000
    C687     C        0.19119    0.86165    0.07660    1.000
    H765     H        0.19150    0.87400    0.12580    1.000
    H766     H        0.21300    0.86380    0.05240    1.000
    C688     C        0.16545    0.87690    0.02270    1.000
    H767     H        0.14350    0.87470    0.04650    1.000
    H768     H        0.16530    0.86490    0.97290    1.000
    C689     C        0.17280    0.91310    0.00790    1.000
    H769     H        0.19630    0.91580    0.99790    1.000
    H770     H        0.16040    0.92060    0.96300    1.000
    H771     H        0.16660    0.92590    0.05340    1.000
    C690     C        0.23272    0.81485    0.89390    1.000
    H772     H        0.22540    0.79320    0.90400    1.000
    C691     C        0.21240    0.83570    0.85350    1.000
    H773     H        0.19160    0.82840    0.83610    1.000
    C692     C        0.22280    0.86758    0.83850    1.000
    C693     C        0.25295    0.87539    0.86340    1.000
    H774     H        0.26130    0.89660    0.85240    1.000
    C694     C        0.27219    0.85400    0.90410    1.000
    H775     H        0.29310    0.86080    0.92200    1.000
    C695     C        0.20110    0.89021    0.79230    1.000
    H776     H        0.20900    0.91290    0.79880    1.000
    H777     H        0.17860    0.88910    0.81320    1.000
    Mn42     Mn       0.22013    0.63710    0.27725    1.000
    O124     O        0.24169    0.60081    0.31712    1.000
    O125     O        0.29845    0.63241    0.12454    1.000
    O126     O        0.20326    0.67503    0.22398    1.000
    N110     N        0.25505    0.64378    0.20170    1.000
    N111     N        0.25065    0.67187    0.15540    1.000
    N112     N        0.14432    0.94141    0.55690    1.000
    C696     C        0.26595    0.58412    0.28670    1.000
    C697     C        0.27292    0.55363    0.32110    1.000
    H778     H        0.26040    0.54650    0.36410    1.000
    C698     C        0.29765    0.53402    0.29310    1.000
    H779     H        0.30170    0.51340    0.31640    1.000
    C699     C        0.31666    0.54410    0.23150    1.000
    H780     H        0.33390    0.53070    0.21310    1.000
    C700     C        0.31044    0.57346    0.19740    1.000
    H781     H        0.32370    0.58030    0.15530    1.000
    C701     C        0.28505    0.59383    0.22280    1.000
    C702     C        0.27962    0.62479    0.18190    1.000
    C703     C        0.22314    0.68603    0.17220    1.000
    C704     C        0.21221    0.71509    0.12650    1.000
    H782     H        0.23100    0.72410    0.09750    1.000
    H783     H        0.20420    0.73220    0.16230    1.000
    C705     C        0.18390    0.70560    0.06770    1.000
    H784     H        0.16460    0.69820    0.09740    1.000
    H785     H        0.19130    0.68700    0.03550    1.000
    C706     C        0.17290    0.73540    0.01100    1.000
    H786     H        0.16220    0.75280    0.04180    1.000
    H787     H        0.19250    0.74500    0.98600    1.000
    C707     C        0.15260    0.72480    0.95760    1.000
    H788     H        0.13190    0.71620    0.97940    1.000
    H789     H        0.16260    0.70840    0.92270    1.000
    C708     C        0.14820    0.76130    0.91620    1.000
    H790     H        0.16940    0.77230    0.91350    1.000
    H791     H        0.13310    0.77460    0.94700    1.000
    H792     H        0.13940    0.75860    0.86390    1.000
    C709     C        0.13941    0.94359    0.63330    1.000
    H793     H        0.12320    0.95840    0.65160    1.000
    C710     C        0.15655    0.92564    0.68660    1.000
    H794     H        0.15210    0.92790    0.74020    1.000
    C711     C        0.18061    0.90407    0.66090    1.000
    C712     C        0.18601    0.90251    0.58270    1.000
    H795     H        0.20240    0.88840    0.56260    1.000
    C713     C        0.16773    0.92138    0.53360    1.000
    H796     H        0.17210    0.92000    0.47970    1.000
    C714     C        0.20030    0.88300    0.71580    1.000
    H797     H        0.22310    0.88290    0.69700    1.000
    H798     H        0.19200    0.86030    0.71080    1.000
    Mn43     Mn       0.70885    0.82646    0.06816    1.000
    O127     O        0.73600    0.84498    0.99330    1.000
    O128     O        0.72440    0.74550    0.92897    1.000
    O129     O        0.68264    0.80058    0.13848    1.000
    N113     N        0.71335    0.78403    0.02000    1.000
    N114     N        0.69781    0.75820    0.06060    1.000
    C715     C        0.74912    0.83182    0.93050    1.000
    C716     C        0.76978    0.85176    0.88510    1.000
    H799     H        0.77470    0.87340    0.90150    1.000
    C717     C        0.78268    0.84013    0.81770    1.000
    H800     H        0.79600    0.85420    0.78740    1.000
    C718     C        0.77716    0.80885    0.79220    1.000
    H801     H        0.78610    0.80140    0.74470    1.000
    C719     C        0.75808    0.78839    0.83780    1.000
    H802     H        0.75410    0.76660    0.82090    1.000
    C720     C        0.74456    0.79877    0.90750    1.000
    C721     C        0.72652    0.77482    0.95400    1.000
    C722     C        0.68307    0.76948    0.12170    1.000
    C723     C        0.66558    0.74659    0.17500    1.000
    H803     H        0.66780    0.72400    0.15530    1.000
    H804     H        0.67590    0.74750    0.22680    1.000
    C724     C        0.62976    0.75493    0.18250    1.000
    H805     H        0.61980    0.74110    0.22310    1.000
    H806     H        0.62750    0.77800    0.19850    1.000
    C725     C        0.61152    0.74967    0.10650    1.000
    H807     H        0.61550    0.72710    0.08810    1.000
    H808     H        0.62030    0.76490    0.06720    1.000
    C726     C        0.57500    0.75500    0.11420    1.000
    H809     H        0.57100    0.77770    0.13150    1.000
    H810     H        0.56640    0.74010    0.15440    1.000
    C727     C        0.55700    0.74920    0.04060    1.000
    H811     H        0.55120    0.72600    0.03670    1.000
    H812     H        0.53710    0.76250    0.03990    1.000
    H813     H        0.57100    0.75530    0.99680    1.000
    Mn44     Mn       0.71193    0.71060    0.00330    1.000
    O130     O        0.67055    0.70228    0.96330    1.000
    O131     O        0.68302    0.63526    0.14974    1.000
    O132     O        0.75367    0.71339    0.05571    1.000
    N115     N        0.70636    0.67627    0.07940    1.000
    N116     N        0.73389    0.67153    0.12820    1.000
    N117     N        0.73827    0.67650    0.91880    1.000
    C728     C        0.64977    0.67844    0.98030    1.000
    C729     C        0.62140    0.67626    0.93420    1.000
    H814     H        0.61780    0.69180    0.89420    1.000
    C730     C        0.59871    0.65155    0.94690    1.000
    H815     H        0.57990    0.65020    0.91490    1.000
    C731     C        0.60306    0.62898    0.00500    1.000
    H816     H        0.58760    0.61200    0.01300    1.000
    C732     C        0.62995    0.63158    0.05100    1.000
    H817     H        0.63280    0.61620    0.09150    1.000
    C733     C        0.65368    0.65602    0.04110    1.000
    C734     C        0.68228    0.65567    0.09380    1.000
    C735     C        0.75712    0.69192    0.10960    1.000
    C736     C        0.78985    0.68910    0.14800    1.000
    H818     H        0.79720    0.71110    0.16470    1.000
    H819     H        0.78780    0.67520    0.19470    1.000
    C737     C        0.81536    0.67426    0.09370    1.000
    H820     H        0.83730    0.67650    0.11740    1.000
    H821     H        0.81540    0.68660    0.04450    1.000
    C738     C        0.80881    0.63835    0.07660    1.000
    H822     H        0.80850    0.62600    0.12580    1.000
    H823     H        0.78700    0.63620    0.05240    1.000
    C739     C        0.83455    0.62310    0.02270    1.000
    H824     H        0.85650    0.62530    0.04650    1.000
    H825     H        0.83470    0.63510    0.97290    1.000
    C740     C        0.82720    0.58690    0.00790    1.000
    H826     H        0.80370    0.58420    0.99790    1.000
    H827     H        0.83960    0.57940    0.96300    1.000
    H828     H        0.83340    0.57410    0.05340    1.000
    C741     C        0.76728    0.68515    0.89390    1.000
    H829     H        0.77460    0.70680    0.90400    1.000
    C742     C        0.78760    0.66430    0.85350    1.000
    H830     H        0.80840    0.67160    0.83610    1.000
    C743     C        0.77720    0.63242    0.83850    1.000
    C744     C        0.74705    0.62461    0.86340    1.000
    H831     H        0.73870    0.60340    0.85240    1.000
    C745     C        0.72781    0.64600    0.90410    1.000
    H832     H        0.70690    0.63920    0.92200    1.000
    C746     C        0.79890    0.60979    0.79230    1.000
    H833     H        0.79100    0.58710    0.79880    1.000
    H834     H        0.82140    0.61090    0.81320    1.000
    Mn45     Mn       0.77987    0.86290    0.27725    1.000
    O133     O        0.75831    0.89919    0.31712    1.000
    O134     O        0.70155    0.86759    0.12454    1.000
    O135     O        0.79674    0.82497    0.22398    1.000
    N118     N        0.74495    0.85622    0.20170    1.000
    N119     N        0.74935    0.82813    0.15540    1.000
    N120     N        0.85568    0.55859    0.55690    1.000
    C747     C        0.73405    0.91588    0.28670    1.000
    C748     C        0.72708    0.94637    0.32110    1.000
    H835     H        0.73960    0.95350    0.36410    1.000
    C749     C        0.70235    0.96598    0.29310    1.000
    H836     H        0.69830    0.98660    0.31640    1.000
    C750     C        0.68334    0.95590    0.23150    1.000
    H837     H        0.66610    0.96930    0.21310    1.000
    C751     C        0.68956    0.92654    0.19740    1.000
    H838     H        0.67630    0.91970    0.15530    1.000
    C752     C        0.71495    0.90617    0.22280    1.000
    C753     C        0.72038    0.87521    0.18190    1.000
    C754     C        0.77686    0.81397    0.17220    1.000
    C755     C        0.78779    0.78491    0.12650    1.000
    H839     H        0.76900    0.77590    0.09750    1.000
    H840     H        0.79580    0.76780    0.16230    1.000
    C756     C        0.81610    0.79440    0.06770    1.000
    H841     H        0.83540    0.80180    0.09740    1.000
    H842     H        0.80870    0.81300    0.03550    1.000
    C757     C        0.82710    0.76460    0.01100    1.000
    H843     H        0.83780    0.74720    0.04180    1.000
    H844     H        0.80750    0.75500    0.98600    1.000
    C758     C        0.84740    0.77520    0.95760    1.000
    H845     H        0.86810    0.78380    0.97940    1.000
    H846     H        0.83740    0.79160    0.92270    1.000
    C759     C        0.85180    0.73870    0.91620    1.000
    H847     H        0.83060    0.72770    0.91350    1.000
    H848     H        0.86690    0.72540    0.94700    1.000
    H849     H        0.86060    0.74140    0.86390    1.000
    C760     C        0.86059    0.55641    0.63330    1.000
    H850     H        0.87680    0.54160    0.65160    1.000
    C761     C        0.84345    0.57436    0.68660    1.000
    H851     H        0.84790    0.57210    0.74020    1.000
    C762     C        0.81939    0.59593    0.66090    1.000
    C763     C        0.81399    0.59749    0.58270    1.000
    H852     H        0.79760    0.61160    0.56260    1.000
    C764     C        0.83227    0.57862    0.53360    1.000
    H853     H        0.82790    0.58000    0.47970    1.000
    C765     C        0.79970    0.61700    0.71580    1.000
    H854     H        0.77690    0.61710    0.69700    1.000
    H855     H        0.80800    0.63970    0.71080    1.000
    Mn46     Mn       0.20885    0.32646    0.56816    1.000
    O136     O        0.23600    0.34498    0.49330    1.000
    O137     O        0.22440    0.24550    0.42897    1.000
    O138     O        0.18264    0.30058    0.63848    1.000
    N121     N        0.21335    0.28403    0.52000    1.000
    N122     N        0.19781    0.25820    0.56060    1.000
    C766     C        0.24912    0.33182    0.43050    1.000
    C767     C        0.26978    0.35176    0.38510    1.000
    H856     H        0.27470    0.37340    0.40150    1.000
    C768     C        0.28268    0.34013    0.31770    1.000
    H857     H        0.29600    0.35420    0.28740    1.000
    C769     C        0.27716    0.30885    0.29220    1.000
    H858     H        0.28610    0.30140    0.24470    1.000
    C770     C        0.25808    0.28839    0.33780    1.000
    H859     H        0.25410    0.26660    0.32090    1.000
    C771     C        0.24456    0.29877    0.40750    1.000
    C772     C        0.22652    0.27482    0.45400    1.000
    C773     C        0.18307    0.26948    0.62170    1.000
    C774     C        0.16558    0.24659    0.67500    1.000
    H860     H        0.16780    0.22400    0.65530    1.000
    H861     H        0.17590    0.24750    0.72680    1.000
    C775     C        0.12976    0.25493    0.68250    1.000
    H862     H        0.11980    0.24110    0.72310    1.000
    H863     H        0.12750    0.27800    0.69850    1.000
    C776     C        0.11152    0.24967    0.60650    1.000
    H864     H        0.11550    0.22710    0.58810    1.000
    H865     H        0.12030    0.26490    0.56720    1.000
    C777     C        0.07500    0.25500    0.61420    1.000
    H866     H        0.07100    0.27770    0.63150    1.000
    H867     H        0.06640    0.24010    0.65440    1.000
    C778     C        0.05700    0.24920    0.54060    1.000
    H868     H        0.05120    0.22600    0.53670    1.000
    H869     H        0.03710    0.26250    0.53990    1.000
    H870     H        0.07100    0.25530    0.49680    1.000
    Mn47     Mn       0.21193    0.21060    0.50330    1.000
    O139     O        0.17055    0.20228    0.46330    1.000
    O140     O        0.18302    0.13526    0.64974    1.000
    O141     O        0.25367    0.21339    0.55571    1.000
    N123     N        0.20636    0.17627    0.57940    1.000
    N124     N        0.23389    0.17153    0.62820    1.000
    N125     N        0.23827    0.17650    0.41880    1.000
    C779     C        0.14977    0.17844    0.48030    1.000
    C780     C        0.12140    0.17626    0.43420    1.000
    H871     H        0.11780    0.19180    0.39420    1.000
    C781     C        0.09871    0.15155    0.44690    1.000
    H872     H        0.07990    0.15020    0.41490    1.000
    C782     C        0.10306    0.12898    0.50500    1.000
    H873     H        0.08760    0.11200    0.51300    1.000
    C783     C        0.12995    0.13158    0.55100    1.000
    H874     H        0.13280    0.11620    0.59150    1.000
    C784     C        0.15368    0.15602    0.54110    1.000
    C785     C        0.18228    0.15567    0.59380    1.000
    C786     C        0.25712    0.19192    0.60960    1.000
    C787     C        0.28985    0.18910    0.64800    1.000
    H875     H        0.29720    0.21110    0.66470    1.000
    H876     H        0.28780    0.17520    0.69470    1.000
    C788     C        0.31536    0.17426    0.59370    1.000
    H877     H        0.33730    0.17650    0.61740    1.000
    H878     H        0.31540    0.18660    0.54450    1.000
    C789     C        0.30881    0.13835    0.57660    1.000
    H879     H        0.30850    0.12600    0.62580    1.000
    H880     H        0.28700    0.13620    0.55240    1.000
    C790     C        0.33455    0.12310    0.52270    1.000
    H881     H        0.35650    0.12530    0.54650    1.000
    H882     H        0.33470    0.13510    0.47290    1.000
    C791     C        0.32720    0.08690    0.50790    1.000
    H883     H        0.30370    0.08420    0.49790    1.000
    H884     H        0.33960    0.07940    0.46300    1.000
    H885     H        0.33340    0.07410    0.55340    1.000
    C792     C        0.26728    0.18515    0.39390    1.000
    H886     H        0.27460    0.20680    0.40400    1.000
    C793     C        0.28760    0.16430    0.35350    1.000
    H887     H        0.30840    0.17160    0.33610    1.000
    C794     C        0.27720    0.13242    0.33850    1.000
    C795     C        0.24705    0.12461    0.36340    1.000
    H888     H        0.23870    0.10340    0.35240    1.000
    C796     C        0.22781    0.14600    0.40410    1.000
    H889     H        0.20690    0.13920    0.42200    1.000
    C797     C        0.29890    0.10979    0.29230    1.000
    H890     H        0.29100    0.08710    0.29880    1.000
    H891     H        0.32140    0.11090    0.31320    1.000
    Mn48     Mn       0.27987    0.36290    0.77725    1.000
    O142     O        0.25831    0.39919    0.81712    1.000
    O143     O        0.20155    0.36759    0.62454    1.000
    O144     O        0.29674    0.32497    0.72398    1.000
    N126     N        0.24495    0.35622    0.70170    1.000
    N127     N        0.24935    0.32813    0.65540    1.000
    N128     N        0.35568    0.05859    0.05690    1.000
    C798     C        0.23405    0.41588    0.78670    1.000
    C799     C        0.22708    0.44637    0.82110    1.000
    H892     H        0.23960    0.45350    0.86410    1.000
    C800     C        0.20235    0.46598    0.79310    1.000
    H893     H        0.19830    0.48660    0.81640    1.000
    C801     C        0.18334    0.45590    0.73150    1.000
    H894     H        0.16610    0.46930    0.71310    1.000
    C802     C        0.18956    0.42654    0.69740    1.000
    H895     H        0.17630    0.41970    0.65530    1.000
    C803     C        0.21495    0.40617    0.72280    1.000
    C804     C        0.22038    0.37521    0.68190    1.000
    C805     C        0.27686    0.31397    0.67220    1.000
    C806     C        0.28779    0.28491    0.62650    1.000
    H896     H        0.26900    0.27590    0.59750    1.000
    H897     H        0.29580    0.26780    0.66230    1.000
    C807     C        0.31610    0.29440    0.56770    1.000
    H898     H        0.33540    0.30180    0.59740    1.000
    H899     H        0.30870    0.31300    0.53550    1.000
    C808     C        0.32710    0.26460    0.51100    1.000
    H900     H        0.33780    0.24720    0.54180    1.000
    H901     H        0.30750    0.25500    0.48600    1.000
    C809     C        0.34740    0.27520    0.45760    1.000
    H902     H        0.36810    0.28380    0.47940    1.000
    H903     H        0.33740    0.29160    0.42270    1.000
    C810     C        0.35180    0.23870    0.41620    1.000
    H904     H        0.33060    0.22770    0.41350    1.000
    H905     H        0.36690    0.22540    0.44700    1.000
    H906     H        0.36060    0.24140    0.36390    1.000
    C811     C        0.36059    0.05641    0.13330    1.000
    H907     H        0.37680    0.04160    0.15160    1.000
    C812     C        0.34345    0.07436    0.18660    1.000
    H908     H        0.34790    0.07210    0.24020    1.000
    C813     C        0.31939    0.09593    0.16090    1.000
    C814     C        0.31399    0.09749    0.08270    1.000
    H909     H        0.29760    0.11160    0.06260    1.000
    C815     C        0.33227    0.07862    0.03360    1.000
    H910     H        0.32790    0.08000    0.97970    1.000
    C816     C        0.29970    0.11700    0.21580    1.000
    H911     H        0.27690    0.11710    0.19700    1.000
    H912     H        0.30800    0.13970    0.21080    1.000
