# CIF file generated by openbabel 3.1.0, see https://openbabel.org
data_I
_chemical_name_common 'image0'
_cell_length_a 16.0331
_cell_length_b 33.324
_cell_length_c 16.8496
_cell_angle_alpha 90
_cell_angle_beta 90
_cell_angle_gamma 90
_space_group_name_H-M_alt 'P 1'
_space_group_name_Hall 'P 1'
loop_
    _symmetry_equiv_pos_as_xyz
    x,y,z
loop_
    _atom_site_label
    _atom_site_type_symbol
    _atom_site_fract_x
    _atom_site_fract_y
    _atom_site_fract_z
    _atom_site_occupancy
    Tm1      Tm       0.01719    0.05398    0.55448    1.000
    Zn1      Zn       0.43700    0.16666    0.67424    1.000
    Zn2      Zn       0.73028    0.15976    0.43043    1.000
    Zn3      Zn       0.76234    0.99031    0.28736    1.000
    O1       O        0.36530    0.20760    0.25910    1.000
    O2       O        0.31210    0.16390    0.17630    1.000
    O3       O        0.37850    0.20830    0.45390    1.000
    O4       O        0.36840    0.18960    0.57950    1.000
    O5       O        0.51130    0.20780    0.34590    1.000
    O6       O        0.63150    0.17660    0.34830    1.000
    O7       O        0.94060    0.01720    0.64180    1.000
    O8       O        0.82760    0.99530    0.69930    1.000
    O9       O        0.03730    0.08750    0.66680    1.000
    O10      O        0.01590    0.14170    0.73640    1.000
    O11      O        0.90060    0.08810    0.54720    1.000
    O12      O        0.82150    0.13900    0.51680    1.000
    O13      O        0.93480    0.01480    0.46780    1.000
    O14      O        0.86000    0.97970    0.38710    1.000
    N1       N        0.27350    0.21710    0.06800    1.000
    N2       N        0.52830    0.17360    0.59510    1.000
    N3       N        0.62900    0.16770    0.50540    1.000
    N4       N        0.80560    0.05930    0.78940    1.000
    N5       N        0.87720    0.11500    0.80380    1.000
    N6       N        0.73520    0.09890    0.40950    1.000
    N7       N        0.75220    0.03800    0.35470    1.000
    N8       N        0.85200    0.98120    0.20440    1.000
    N9       N        0.15540    0.92310    0.92170    1.000
    C1       C        0.32810    0.19870    0.19450    1.000
    C2       C        0.30540    0.22900    0.13590    1.000
    C3       C        0.40850    0.19570    0.51740    1.000
    C4       C        0.49760    0.18570    0.52110    1.000
    C5       C        0.56120    0.18180    0.46790    1.000
    C6       C        0.56870    0.18960    0.38270    1.000
    C7       C        0.60800    0.16360    0.58300    1.000
    C8       C        0.66480    0.15260    0.64790    1.000
    H1       H        0.63910    0.13240    0.68030    1.000
    H2       H        0.67650    0.17580    0.67960    1.000
    H3       H        0.71580    0.14230    0.62610    1.000
    C9       C        0.88280    0.02120    0.68970    1.000
    C10      C        0.87340    0.05730    0.73880    1.000
    C11      C        0.91730    0.09200    0.74790    1.000
    C12      C        0.99390    0.10730    0.71490    1.000
    C13      C        0.81000    0.09420    0.82510    1.000
    C14      C        0.74850    0.10990    0.88330    1.000
    H4       H        0.73020    0.08850    0.91720    1.000
    H5       H        0.70140    0.12090    0.85550    1.000
    H6       H        0.77410    0.13050    0.91480    1.000
    C15      C        0.84520    0.10360    0.50700    1.000
    C16      C        0.80170    0.08080    0.44530    1.000
    C17      C        0.81260    0.04330    0.41240    1.000
    C18      C        0.87230    0.01190    0.42400    1.000
    C19      C        0.70870    0.07250    0.35480    1.000
    C20      C        0.63450    0.07980    0.30340    1.000
    H7       H        0.63660    0.06220    0.25840    1.000
    H8       H        0.63470    0.10720    0.28570    1.000
    H9       H        0.58460    0.07470    0.33320    1.000
    C21      C        0.92760    0.99820    0.20280    1.000
    H10      H        0.93980    0.01790    0.24030    1.000
    C22      C        0.98680    0.98840    0.14980    1.000
    H11      H        0.03870    0.00080    0.15230    1.000
    C23      C        0.97190    0.96060    0.09250    1.000
    C24      C        0.89410    0.94400    0.09310    1.000
    H12      H        0.88070    0.92470    0.05540    1.000
    C25      C        0.83670    0.95480    0.14660    1.000
    H13      H        0.78380    0.94350    0.14340    1.000
    C26      C        0.16760    0.95420    0.97020    1.000
    H14      H        0.21870    0.96730    0.96750    1.000
    C27      C        0.11100    0.96800    0.02320    1.000
    H15      H        0.12180    0.99080    0.05330    1.000
    C28      C        0.03640    0.94730    0.03150    1.000
    C29      C        0.02430    0.91550    0.98480    1.000
    H16      H        0.97490    0.90090    0.98860    1.000
    C30      C        0.08380    0.90420    0.93140    1.000
    H17      H        0.07340    0.88180    0.90000    1.000
    H18      H        0.16450    0.24220    0.94390    1.000
    H19      H        0.22730    0.27640    0.92150    1.000
    H20      H        0.25360    0.23140    0.91210    1.000
    Tm2      Tm       0.48281    0.94602    0.05448    1.000
    Zn4      Zn       0.06300    0.83334    0.17424    1.000
    Zn5      Zn       0.76972    0.84024    0.93043    1.000
    Zn6      Zn       0.73766    0.00969    0.78736    1.000
    O15      O        0.13470    0.79240    0.75910    1.000
    O16      O        0.18790    0.83610    0.67630    1.000
    O17      O        0.12150    0.79170    0.95390    1.000
    O18      O        0.13160    0.81040    0.07950    1.000
    O19      O        0.98870    0.79220    0.84590    1.000
    O20      O        0.86850    0.82340    0.84830    1.000
    O21      O        0.55940    0.98280    0.14180    1.000
    O22      O        0.67240    0.00470    0.19930    1.000
    O23      O        0.46270    0.91250    0.16680    1.000
    O24      O        0.48410    0.85830    0.23640    1.000
    O25      O        0.59940    0.91190    0.04720    1.000
    O26      O        0.67850    0.86100    0.01680    1.000
    O27      O        0.56520    0.98520    0.96780    1.000
    O28      O        0.64000    0.02030    0.88710    1.000
    N10      N        0.22650    0.78290    0.56800    1.000
    N11      N        0.97170    0.82640    0.09510    1.000
    N12      N        0.87100    0.83230    0.00540    1.000
    N13      N        0.69440    0.94070    0.28940    1.000
    N14      N        0.62280    0.88500    0.30380    1.000
    N15      N        0.76480    0.90110    0.90950    1.000
    N16      N        0.74780    0.96200    0.85470    1.000
    N17      N        0.64800    0.01880    0.70440    1.000
    N18      N        0.34460    0.07690    0.42170    1.000
    C31      C        0.17190    0.80130    0.69450    1.000
    C32      C        0.19460    0.77100    0.63590    1.000
    C33      C        0.09150    0.80430    0.01740    1.000
    C34      C        0.00240    0.81430    0.02110    1.000
    C35      C        0.93880    0.81820    0.96790    1.000
    C36      C        0.93130    0.81040    0.88270    1.000
    C37      C        0.89200    0.83640    0.08300    1.000
    C38      C        0.83520    0.84740    0.14790    1.000
    H21      H        0.86090    0.86760    0.18030    1.000
    H22      H        0.82350    0.82420    0.17960    1.000
    H23      H        0.78420    0.85770    0.12610    1.000
    C39      C        0.61720    0.97880    0.18970    1.000
    C40      C        0.62660    0.94270    0.23880    1.000
    C41      C        0.58270    0.90800    0.24790    1.000
    C42      C        0.50610    0.89270    0.21490    1.000
    C43      C        0.69000    0.90580    0.32510    1.000
    C44      C        0.75150    0.89010    0.38330    1.000
    H24      H        0.76980    0.91150    0.41720    1.000
    H25      H        0.79860    0.87910    0.35550    1.000
    H26      H        0.72590    0.86950    0.41480    1.000
    C45      C        0.65480    0.89640    0.00700    1.000
    C46      C        0.69830    0.91920    0.94530    1.000
    C47      C        0.68740    0.95670    0.91240    1.000
    C48      C        0.62770    0.98810    0.92400    1.000
    C49      C        0.79130    0.92750    0.85480    1.000
    C50      C        0.86550    0.92020    0.80340    1.000
    H27      H        0.86340    0.93780    0.75840    1.000
    H28      H        0.86530    0.89280    0.78570    1.000
    H29      H        0.91540    0.92530    0.83320    1.000
    C51      C        0.57240    0.00180    0.70280    1.000
    H30      H        0.56020    0.98210    0.74030    1.000
    C52      C        0.51320    0.01160    0.64980    1.000
    H31      H        0.46130    0.99920    0.65230    1.000
    C53      C        0.52810    0.03940    0.59250    1.000
    C54      C        0.60590    0.05600    0.59310    1.000
    H32      H        0.61930    0.07530    0.55540    1.000
    C55      C        0.66330    0.04520    0.64660    1.000
    H33      H        0.71620    0.05650    0.64340    1.000
    C56      C        0.33240    0.04580    0.47020    1.000
    H34      H        0.28130    0.03270    0.46750    1.000
    C57      C        0.38900    0.03200    0.52320    1.000
    H35      H        0.37820    0.00920    0.55330    1.000
    C58      C        0.46360    0.05270    0.53150    1.000
    C59      C        0.47570    0.08450    0.48480    1.000
    H36      H        0.52510    0.09910    0.48860    1.000
    C60      C        0.41620    0.09580    0.43140    1.000
    H37      H        0.42660    0.11820    0.40000    1.000
    H38      H        0.33550    0.75780    0.44390    1.000
    H39      H        0.27270    0.72360    0.42150    1.000
    H40      H        0.24640    0.76860    0.41210    1.000
    Tm3      Tm       0.98281    0.55398    0.44552    1.000
    Zn7      Zn       0.56300    0.66666    0.32576    1.000
    Zn8      Zn       0.26972    0.65976    0.56957    1.000
    Zn9      Zn       0.23766    0.49031    0.71264    1.000
    O29      O        0.63470    0.70760    0.74090    1.000
    O30      O        0.68790    0.66390    0.82370    1.000
    O31      O        0.62150    0.70830    0.54610    1.000
    O32      O        0.63160    0.68960    0.42050    1.000
    O33      O        0.48870    0.70780    0.65410    1.000
    O34      O        0.36850    0.67660    0.65170    1.000
    O35      O        0.05940    0.51720    0.35820    1.000
    O36      O        0.17240    0.49530    0.30070    1.000
    O37      O        0.96270    0.58750    0.33320    1.000
    O38      O        0.98410    0.64170    0.26360    1.000
    O39      O        0.09940    0.58810    0.45280    1.000
    O40      O        0.17850    0.63900    0.48320    1.000
    O41      O        0.06520    0.51480    0.53220    1.000
    O42      O        0.14000    0.47970    0.61290    1.000
    N19      N        0.72650    0.71710    0.93200    1.000
    N20      N        0.47170    0.67360    0.40490    1.000
    N21      N        0.37100    0.66770    0.49460    1.000
    N22      N        0.19440    0.55930    0.21060    1.000
    N23      N        0.12280    0.61500    0.19620    1.000
    N24      N        0.26480    0.59890    0.59050    1.000
    N25      N        0.24780    0.53800    0.64530    1.000
    N26      N        0.14800    0.48120    0.79560    1.000
    N27      N        0.84460    0.42310    0.07830    1.000
    C61      C        0.67190    0.69870    0.80550    1.000
    C62      C        0.69460    0.72900    0.86410    1.000
    C63      C        0.59150    0.69570    0.48260    1.000
    C64      C        0.50240    0.68570    0.47890    1.000
    C65      C        0.43880    0.68180    0.53210    1.000
    C66      C        0.43130    0.68960    0.61730    1.000
    C67      C        0.39200    0.66360    0.41700    1.000
    C68      C        0.33520    0.65260    0.35210    1.000
    H41      H        0.36090    0.63240    0.31970    1.000
    H42      H        0.32350    0.67580    0.32040    1.000
    H43      H        0.28420    0.64230    0.37390    1.000
    C69      C        0.11720    0.52120    0.31030    1.000
    C70      C        0.12660    0.55730    0.26120    1.000
    C71      C        0.08270    0.59200    0.25210    1.000
    C72      C        0.00610    0.60730    0.28510    1.000
    C73      C        0.19000    0.59420    0.17490    1.000
    C74      C        0.25150    0.60990    0.11670    1.000
    H44      H        0.26980    0.58850    0.08280    1.000
    H45      H        0.29860    0.62090    0.14450    1.000
    H46      H        0.22590    0.63050    0.08520    1.000
    C75      C        0.15480    0.60360    0.49300    1.000
    C76      C        0.19830    0.58080    0.55470    1.000
    C77      C        0.18740    0.54330    0.58760    1.000
    C78      C        0.12770    0.51190    0.57600    1.000
    C79      C        0.29130    0.57250    0.64520    1.000
    C80      C        0.36550    0.57980    0.69660    1.000
    H47      H        0.36340    0.56220    0.74160    1.000
    H48      H        0.36530    0.60720    0.71430    1.000
    H49      H        0.41540    0.57470    0.66680    1.000
    C81      C        0.07240    0.49820    0.79720    1.000
    H50      H        0.06020    0.51790    0.75970    1.000
    C82      C        0.01320    0.48840    0.85020    1.000
    H51      H        0.96130    0.50080    0.84770    1.000
    C83      C        0.02810    0.46060    0.90750    1.000
    C84      C        0.10590    0.44400    0.90690    1.000
    H52      H        0.11930    0.42470    0.94460    1.000
    C85      C        0.16330    0.45480    0.85340    1.000
    H53      H        0.21620    0.44350    0.85660    1.000
    C86      C        0.83240    0.45420    0.02980    1.000
    H54      H        0.78130    0.46730    0.03250    1.000
    C87      C        0.88900    0.46800    0.97680    1.000
    H55      H        0.87820    0.49080    0.94670    1.000
    C88      C        0.96360    0.44730    0.96850    1.000
    C89      C        0.97570    0.41550    0.01520    1.000
    H56      H        0.02510    0.40090    0.01140    1.000
    C90      C        0.91620    0.40420    0.06860    1.000
    H57      H        0.92660    0.38180    0.10000    1.000
    H58      H        0.83550    0.74220    0.05610    1.000
    H59      H        0.77270    0.77640    0.07850    1.000
    H60      H        0.74640    0.73140    0.08790    1.000
    Tm4      Tm       0.51719    0.44602    0.94552    1.000
    Zn10     Zn       0.93700    0.33334    0.82576    1.000
    Zn11     Zn       0.23028    0.34024    0.06957    1.000
    Zn12     Zn       0.26234    0.50969    0.21264    1.000
    O43      O        0.86530    0.29240    0.24090    1.000
    O44      O        0.81210    0.33610    0.32370    1.000
    O45      O        0.87850    0.29170    0.04610    1.000
    O46      O        0.86840    0.31040    0.92050    1.000
    O47      O        0.01130    0.29220    0.15410    1.000
    O48      O        0.13150    0.32340    0.15170    1.000
    O49      O        0.44060    0.48280    0.85820    1.000
    O50      O        0.32760    0.50470    0.80070    1.000
    O51      O        0.53730    0.41250    0.83320    1.000
    O52      O        0.51590    0.35830    0.76360    1.000
    O53      O        0.40060    0.41190    0.95280    1.000
    O54      O        0.32150    0.36100    0.98320    1.000
    O55      O        0.43480    0.48520    0.03220    1.000
    O56      O        0.36000    0.52030    0.11290    1.000
    N28      N        0.77350    0.28290    0.43200    1.000
    N29      N        0.02830    0.32640    0.90490    1.000
    N30      N        0.12900    0.33230    0.99460    1.000
    N31      N        0.30560    0.44070    0.71060    1.000
    N32      N        0.37720    0.38500    0.69620    1.000
    N33      N        0.23520    0.40110    0.09050    1.000
    N34      N        0.25220    0.46200    0.14530    1.000
    N35      N        0.35200    0.51880    0.29560    1.000
    N36      N        0.65540    0.57690    0.57830    1.000
    C91      C        0.82810    0.30130    0.30550    1.000
    C92      C        0.80540    0.27100    0.36410    1.000
    C93      C        0.90850    0.30430    0.98260    1.000
    C94      C        0.99760    0.31430    0.97890    1.000
    C95      C        0.06120    0.31820    0.03210    1.000
    C96      C        0.06870    0.31040    0.11730    1.000
    C97      C        0.10800    0.33640    0.91700    1.000
    C98      C        0.16480    0.34740    0.85210    1.000
    H61      H        0.13910    0.36760    0.81970    1.000
    H62      H        0.17650    0.32420    0.82040    1.000
    H63      H        0.21580    0.35770    0.87390    1.000
    C99      C        0.38280    0.47880    0.81030    1.000
    C100     C        0.37340    0.44270    0.76120    1.000
    C101     C        0.41730    0.40800    0.75210    1.000
    C102     C        0.49390    0.39270    0.78510    1.000
    C103     C        0.31000    0.40580    0.67490    1.000
    C104     C        0.24850    0.39010    0.61670    1.000
    H64      H        0.23020    0.41150    0.58280    1.000
    H65      H        0.20140    0.37910    0.64450    1.000
    H66      H        0.27410    0.36950    0.58520    1.000
    C105     C        0.34520    0.39640    0.99300    1.000
    C106     C        0.30170    0.41920    0.05470    1.000
    C107     C        0.31260    0.45670    0.08760    1.000
    C108     C        0.37230    0.48810    0.07600    1.000
    C109     C        0.20870    0.42750    0.14520    1.000
    C110     C        0.13450    0.42020    0.19660    1.000
    H67      H        0.13660    0.43780    0.24160    1.000
    H68      H        0.13470    0.39280    0.21430    1.000
    H69      H        0.08460    0.42530    0.16680    1.000
    C111     C        0.42760    0.50180    0.29720    1.000
    H70      H        0.43980    0.48210    0.25970    1.000
    C112     C        0.48680    0.51160    0.35020    1.000
    H71      H        0.53870    0.49920    0.34770    1.000
    C113     C        0.47190    0.53940    0.40750    1.000
    C114     C        0.39410    0.55600    0.40690    1.000
    H72      H        0.38070    0.57530    0.44460    1.000
    C115     C        0.33670    0.54520    0.35340    1.000
    H73      H        0.28380    0.55650    0.35660    1.000
    C116     C        0.66760    0.54580    0.52980    1.000
    H74      H        0.71870    0.53270    0.53250    1.000
    C117     C        0.61100    0.53200    0.47680    1.000
    H75      H        0.62180    0.50920    0.44670    1.000
    C118     C        0.53640    0.55270    0.46850    1.000
    C119     C        0.52430    0.58450    0.51520    1.000
    H76      H        0.47490    0.59910    0.51140    1.000
    C120     C        0.58380    0.59580    0.56860    1.000
    H77      H        0.57340    0.61820    0.60000    1.000
    H78      H        0.66450    0.25780    0.55610    1.000
    H79      H        0.72730    0.22360    0.57850    1.000
    H80      H        0.75360    0.26860    0.58790    1.000
    Tm5      Tm       0.98281    0.94602    0.44552    1.000
    Zn13     Zn       0.56300    0.83334    0.32576    1.000
    Zn14     Zn       0.26972    0.84024    0.56957    1.000
    Zn15     Zn       0.23766    0.00969    0.71264    1.000
    O57      O        0.63470    0.79240    0.74090    1.000
    O58      O        0.68790    0.83610    0.82370    1.000
    O59      O        0.62150    0.79170    0.54610    1.000
    O60      O        0.63160    0.81040    0.42050    1.000
    O61      O        0.48870    0.79220    0.65410    1.000
    O62      O        0.36850    0.82340    0.65170    1.000
    O63      O        0.05940    0.98280    0.35820    1.000
    O64      O        0.17240    0.00470    0.30070    1.000
    O65      O        0.96270    0.91250    0.33320    1.000
    O66      O        0.98410    0.85830    0.26360    1.000
    O67      O        0.09940    0.91190    0.45280    1.000
    O68      O        0.17850    0.86100    0.48320    1.000
    O69      O        0.06520    0.98520    0.53220    1.000
    O70      O        0.14000    0.02030    0.61290    1.000
    N37      N        0.72650    0.78290    0.93200    1.000
    N38      N        0.47170    0.82640    0.40490    1.000
    N39      N        0.37100    0.83230    0.49460    1.000
    N40      N        0.19440    0.94070    0.21060    1.000
    N41      N        0.12280    0.88500    0.19620    1.000
    N42      N        0.26480    0.90110    0.59050    1.000
    N43      N        0.24780    0.96200    0.64530    1.000
    N44      N        0.14800    0.01880    0.79560    1.000
    N45      N        0.84460    0.07690    0.07830    1.000
    C121     C        0.67190    0.80130    0.80550    1.000
    C122     C        0.69460    0.77100    0.86410    1.000
    C123     C        0.59150    0.80430    0.48260    1.000
    C124     C        0.50240    0.81430    0.47890    1.000
    C125     C        0.43880    0.81820    0.53210    1.000
    C126     C        0.43130    0.81040    0.61730    1.000
    C127     C        0.39200    0.83640    0.41700    1.000
    C128     C        0.33520    0.84740    0.35210    1.000
    H81      H        0.36090    0.86760    0.31970    1.000
    H82      H        0.32350    0.82420    0.32040    1.000
    H83      H        0.28420    0.85770    0.37390    1.000
    C129     C        0.11720    0.97880    0.31030    1.000
    C130     C        0.12660    0.94270    0.26120    1.000
    C131     C        0.08270    0.90800    0.25210    1.000
    C132     C        0.00610    0.89270    0.28510    1.000
    C133     C        0.19000    0.90580    0.17490    1.000
    C134     C        0.25150    0.89010    0.11670    1.000
    H84      H        0.26980    0.91150    0.08280    1.000
    H85      H        0.29860    0.87910    0.14450    1.000
    H86      H        0.22590    0.86950    0.08520    1.000
    C135     C        0.15480    0.89640    0.49300    1.000
    C136     C        0.19830    0.91920    0.55470    1.000
    C137     C        0.18740    0.95670    0.58760    1.000
    C138     C        0.12770    0.98810    0.57600    1.000
    C139     C        0.29130    0.92750    0.64520    1.000
    C140     C        0.36550    0.92020    0.69660    1.000
    H87      H        0.36340    0.93780    0.74160    1.000
    H88      H        0.36530    0.89280    0.71430    1.000
    H89      H        0.41540    0.92530    0.66680    1.000
    C141     C        0.07240    0.00180    0.79720    1.000
    H90      H        0.06020    0.98210    0.75970    1.000
    C142     C        0.01320    0.01160    0.85020    1.000
    H91      H        0.96130    0.99920    0.84770    1.000
    C143     C        0.02810    0.03940    0.90750    1.000
    C144     C        0.10590    0.05600    0.90690    1.000
    H92      H        0.11930    0.07530    0.94460    1.000
    C145     C        0.16330    0.04520    0.85340    1.000
    H93      H        0.21620    0.05650    0.85660    1.000
    C146     C        0.83240    0.04580    0.02980    1.000
    H94      H        0.78130    0.03270    0.03250    1.000
    C147     C        0.88900    0.03200    0.97680    1.000
    H95      H        0.87820    0.00920    0.94670    1.000
    C148     C        0.96360    0.05270    0.96850    1.000
    C149     C        0.97570    0.08450    0.01520    1.000
    H96      H        0.02510    0.09910    0.01140    1.000
    C150     C        0.91620    0.09580    0.06860    1.000
    H97      H        0.92660    0.11820    0.10000    1.000
    H98      H        0.83550    0.75780    0.05610    1.000
    H99      H        0.77270    0.72360    0.07850    1.000
    H100     H        0.74640    0.76860    0.08790    1.000
    Tm6      Tm       0.51719    0.05398    0.94552    1.000
    Zn16     Zn       0.93700    0.16666    0.82576    1.000
    Zn17     Zn       0.23028    0.15976    0.06957    1.000
    Zn18     Zn       0.26234    0.99031    0.21264    1.000
    O71      O        0.86530    0.20760    0.24090    1.000
    O72      O        0.81210    0.16390    0.32370    1.000
    O73      O        0.87850    0.20830    0.04610    1.000
    O74      O        0.86840    0.18960    0.92050    1.000
    O75      O        0.01130    0.20780    0.15410    1.000
    O76      O        0.13150    0.17660    0.15170    1.000
    O77      O        0.44060    0.01720    0.85820    1.000
    O78      O        0.32760    0.99530    0.80070    1.000
    O79      O        0.53730    0.08750    0.83320    1.000
    O80      O        0.51590    0.14170    0.76360    1.000
    O81      O        0.40060    0.08810    0.95280    1.000
    O82      O        0.32150    0.13900    0.98320    1.000
    O83      O        0.43480    0.01480    0.03220    1.000
    O84      O        0.36000    0.97970    0.11290    1.000
    N46      N        0.77350    0.21710    0.43200    1.000
    N47      N        0.02830    0.17360    0.90490    1.000
    N48      N        0.12900    0.16770    0.99460    1.000
    N49      N        0.30560    0.05930    0.71060    1.000
    N50      N        0.37720    0.11500    0.69620    1.000
    N51      N        0.23520    0.09890    0.09050    1.000
    N52      N        0.25220    0.03800    0.14530    1.000
    N53      N        0.35200    0.98120    0.29560    1.000
    N54      N        0.65540    0.92310    0.57830    1.000
    C151     C        0.82810    0.19870    0.30550    1.000
    C152     C        0.80540    0.22900    0.36410    1.000
    C153     C        0.90850    0.19570    0.98260    1.000
    C154     C        0.99760    0.18570    0.97890    1.000
    C155     C        0.06120    0.18180    0.03210    1.000
    C156     C        0.06870    0.18960    0.11730    1.000
    C157     C        0.10800    0.16360    0.91700    1.000
    C158     C        0.16480    0.15260    0.85210    1.000
    H101     H        0.13910    0.13240    0.81970    1.000
    H102     H        0.17650    0.17580    0.82040    1.000
    H103     H        0.21580    0.14230    0.87390    1.000
    C159     C        0.38280    0.02120    0.81030    1.000
    C160     C        0.37340    0.05730    0.76120    1.000
    C161     C        0.41730    0.09200    0.75210    1.000
    C162     C        0.49390    0.10730    0.78510    1.000
    C163     C        0.31000    0.09420    0.67490    1.000
    C164     C        0.24850    0.10990    0.61670    1.000
    H104     H        0.23020    0.08850    0.58280    1.000
    H105     H        0.20140    0.12090    0.64450    1.000
    H106     H        0.27410    0.13050    0.58520    1.000
    C165     C        0.34520    0.10360    0.99300    1.000
    C166     C        0.30170    0.08080    0.05470    1.000
    C167     C        0.31260    0.04330    0.08760    1.000
    C168     C        0.37230    0.01190    0.07600    1.000
    C169     C        0.20870    0.07250    0.14520    1.000
    C170     C        0.13450    0.07980    0.19660    1.000
    H107     H        0.13660    0.06220    0.24160    1.000
    H108     H        0.13470    0.10720    0.21430    1.000
    H109     H        0.08460    0.07470    0.16680    1.000
    C171     C        0.42760    0.99820    0.29720    1.000
    H110     H        0.43980    0.01790    0.25970    1.000
    C172     C        0.48680    0.98840    0.35020    1.000
    H111     H        0.53870    0.00080    0.34770    1.000
    C173     C        0.47190    0.96060    0.40750    1.000
    C174     C        0.39410    0.94400    0.40690    1.000
    H112     H        0.38070    0.92470    0.44460    1.000
    C175     C        0.33670    0.95480    0.35340    1.000
    H113     H        0.28380    0.94350    0.35660    1.000
    C176     C        0.66760    0.95420    0.52980    1.000
    H114     H        0.71870    0.96730    0.53250    1.000
    C177     C        0.61100    0.96800    0.47680    1.000
    H115     H        0.62180    0.99080    0.44670    1.000
    C178     C        0.53640    0.94730    0.46850    1.000
    C179     C        0.52430    0.91550    0.51520    1.000
    H116     H        0.47490    0.90090    0.51140    1.000
    C180     C        0.58380    0.90420    0.56860    1.000
    H117     H        0.57340    0.88180    0.60000    1.000
    H118     H        0.66450    0.24220    0.55610    1.000
    H119     H        0.72730    0.27640    0.57850    1.000
    H120     H        0.75360    0.23140    0.58790    1.000
    Tm7      Tm       0.01719    0.44602    0.55448    1.000
    Zn19     Zn       0.43700    0.33334    0.67424    1.000
    Zn20     Zn       0.73028    0.34024    0.43043    1.000
    Zn21     Zn       0.76234    0.50969    0.28736    1.000
    O85      O        0.36530    0.29240    0.25910    1.000
    O86      O        0.31210    0.33610    0.17630    1.000
    O87      O        0.37850    0.29170    0.45390    1.000
    O88      O        0.36840    0.31040    0.57950    1.000
    O89      O        0.51130    0.29220    0.34590    1.000
    O90      O        0.63150    0.32340    0.34830    1.000
    O91      O        0.94060    0.48280    0.64180    1.000
    O92      O        0.82760    0.50470    0.69930    1.000
    O93      O        0.03730    0.41250    0.66680    1.000
    O94      O        0.01590    0.35830    0.73640    1.000
    O95      O        0.90060    0.41190    0.54720    1.000
    O96      O        0.82150    0.36100    0.51680    1.000
    O97      O        0.93480    0.48520    0.46780    1.000
    O98      O        0.86000    0.52030    0.38710    1.000
    N55      N        0.27350    0.28290    0.06800    1.000
    N56      N        0.52830    0.32640    0.59510    1.000
    N57      N        0.62900    0.33230    0.50540    1.000
    N58      N        0.80560    0.44070    0.78940    1.000
    N59      N        0.87720    0.38500    0.80380    1.000
    N60      N        0.73520    0.40110    0.40950    1.000
    N61      N        0.75220    0.46200    0.35470    1.000
    N62      N        0.85200    0.51880    0.20440    1.000
    N63      N        0.15540    0.57690    0.92170    1.000
    C181     C        0.32810    0.30130    0.19450    1.000
    C182     C        0.30540    0.27100    0.13590    1.000
    C183     C        0.40850    0.30430    0.51740    1.000
    C184     C        0.49760    0.31430    0.52110    1.000
    C185     C        0.56120    0.31820    0.46790    1.000
    C186     C        0.56870    0.31040    0.38270    1.000
    C187     C        0.60800    0.33640    0.58300    1.000
    C188     C        0.66480    0.34740    0.64790    1.000
    H121     H        0.63910    0.36760    0.68030    1.000
    H122     H        0.67650    0.32420    0.67960    1.000
    H123     H        0.71580    0.35770    0.62610    1.000
    C189     C        0.88280    0.47880    0.68970    1.000
    C190     C        0.87340    0.44270    0.73880    1.000
    C191     C        0.91730    0.40800    0.74790    1.000
    C192     C        0.99390    0.39270    0.71490    1.000
    C193     C        0.81000    0.40580    0.82510    1.000
    C194     C        0.74850    0.39010    0.88330    1.000
    H124     H        0.73020    0.41150    0.91720    1.000
    H125     H        0.70140    0.37910    0.85550    1.000
    H126     H        0.77410    0.36950    0.91480    1.000
    C195     C        0.84520    0.39640    0.50700    1.000
    C196     C        0.80170    0.41920    0.44530    1.000
    C197     C        0.81260    0.45670    0.41240    1.000
    C198     C        0.87230    0.48810    0.42400    1.000
    C199     C        0.70870    0.42750    0.35480    1.000
    C200     C        0.63450    0.42020    0.30340    1.000
    H127     H        0.63660    0.43780    0.25840    1.000
    H128     H        0.63470    0.39280    0.28570    1.000
    H129     H        0.58460    0.42530    0.33320    1.000
    C201     C        0.92760    0.50180    0.20280    1.000
    H130     H        0.93980    0.48210    0.24030    1.000
    C202     C        0.98680    0.51160    0.14980    1.000
    H131     H        0.03870    0.49920    0.15230    1.000
    C203     C        0.97190    0.53940    0.09250    1.000
    C204     C        0.89410    0.55600    0.09310    1.000
    H132     H        0.88070    0.57530    0.05540    1.000
    C205     C        0.83670    0.54520    0.14660    1.000
    H133     H        0.78380    0.55650    0.14340    1.000
    C206     C        0.16760    0.54580    0.97020    1.000
    H134     H        0.21870    0.53270    0.96750    1.000
    C207     C        0.11100    0.53200    0.02320    1.000
    H135     H        0.12180    0.50920    0.05330    1.000
    C208     C        0.03640    0.55270    0.03150    1.000
    C209     C        0.02430    0.58450    0.98480    1.000
    H136     H        0.97490    0.59910    0.98860    1.000
    C210     C        0.08380    0.59580    0.93140    1.000
    H137     H        0.07340    0.61820    0.90000    1.000
    H138     H        0.16450    0.25780    0.94390    1.000
    H139     H        0.22730    0.22360    0.92150    1.000
    H140     H        0.25360    0.26860    0.91210    1.000
    Tm8      Tm       0.48281    0.55398    0.05448    1.000
    Zn22     Zn       0.06300    0.66666    0.17424    1.000
    Zn23     Zn       0.76972    0.65976    0.93043    1.000
    Zn24     Zn       0.73766    0.49031    0.78736    1.000
    O99      O        0.13470    0.70760    0.75910    1.000
    O100     O        0.18790    0.66390    0.67630    1.000
    O101     O        0.12150    0.70830    0.95390    1.000
    O102     O        0.13160    0.68960    0.07950    1.000
    O103     O        0.98870    0.70780    0.84590    1.000
    O104     O        0.86850    0.67660    0.84830    1.000
    O105     O        0.55940    0.51720    0.14180    1.000
    O106     O        0.67240    0.49530    0.19930    1.000
    O107     O        0.46270    0.58750    0.16680    1.000
    O108     O        0.48410    0.64170    0.23640    1.000
    O109     O        0.59940    0.58810    0.04720    1.000
    O110     O        0.67850    0.63900    0.01680    1.000
    O111     O        0.56520    0.51480    0.96780    1.000
    O112     O        0.64000    0.47970    0.88710    1.000
    N64      N        0.22650    0.71710    0.56800    1.000
    N65      N        0.97170    0.67360    0.09510    1.000
    N66      N        0.87100    0.66770    0.00540    1.000
    N67      N        0.69440    0.55930    0.28940    1.000
    N68      N        0.62280    0.61500    0.30380    1.000
    N69      N        0.76480    0.59890    0.90950    1.000
    N70      N        0.74780    0.53800    0.85470    1.000
    N71      N        0.64800    0.48120    0.70440    1.000
    N72      N        0.34460    0.42310    0.42170    1.000
    C211     C        0.17190    0.69870    0.69450    1.000
    C212     C        0.19460    0.72900    0.63590    1.000
    C213     C        0.09150    0.69570    0.01740    1.000
    C214     C        0.00240    0.68570    0.02110    1.000
    C215     C        0.93880    0.68180    0.96790    1.000
    C216     C        0.93130    0.68960    0.88270    1.000
    C217     C        0.89200    0.66360    0.08300    1.000
    C218     C        0.83520    0.65260    0.14790    1.000
    H141     H        0.86090    0.63240    0.18030    1.000
    H142     H        0.82350    0.67580    0.17960    1.000
    H143     H        0.78420    0.64230    0.12610    1.000
    C219     C        0.61720    0.52120    0.18970    1.000
    C220     C        0.62660    0.55730    0.23880    1.000
    C221     C        0.58270    0.59200    0.24790    1.000
    C222     C        0.50610    0.60730    0.21490    1.000
    C223     C        0.69000    0.59420    0.32510    1.000
    C224     C        0.75150    0.60990    0.38330    1.000
    H144     H        0.76980    0.58850    0.41720    1.000
    H145     H        0.79860    0.62090    0.35550    1.000
    H146     H        0.72590    0.63050    0.41480    1.000
    C225     C        0.65480    0.60360    0.00700    1.000
    C226     C        0.69830    0.58080    0.94530    1.000
    C227     C        0.68740    0.54330    0.91240    1.000
    C228     C        0.62770    0.51190    0.92400    1.000
    C229     C        0.79130    0.57250    0.85480    1.000
    C230     C        0.86550    0.57980    0.80340    1.000
    H147     H        0.86340    0.56220    0.75840    1.000
    H148     H        0.86530    0.60720    0.78570    1.000
    H149     H        0.91540    0.57470    0.83320    1.000
    C231     C        0.57240    0.49820    0.70280    1.000
    H150     H        0.56020    0.51790    0.74030    1.000
    C232     C        0.51320    0.48840    0.64980    1.000
    H151     H        0.46130    0.50080    0.65230    1.000
    C233     C        0.52810    0.46060    0.59250    1.000
    C234     C        0.60590    0.44400    0.59310    1.000
    H152     H        0.61930    0.42470    0.55540    1.000
    C235     C        0.66330    0.45480    0.64660    1.000
    H153     H        0.71620    0.44350    0.64340    1.000
    C236     C        0.33240    0.45420    0.47020    1.000
    H154     H        0.28130    0.46730    0.46750    1.000
    C237     C        0.38900    0.46800    0.52320    1.000
    H155     H        0.37820    0.49080    0.55330    1.000
    C238     C        0.46360    0.44730    0.53150    1.000
    C239     C        0.47570    0.41550    0.48480    1.000
    H156     H        0.52510    0.40090    0.48860    1.000
    C240     C        0.41620    0.40420    0.43140    1.000
    H157     H        0.42660    0.38180    0.40000    1.000
    H158     H        0.33550    0.74220    0.44390    1.000
    H159     H        0.27270    0.77640    0.42150    1.000
    H160     H        0.24640    0.73140    0.41210    1.000
    Tm9      Tm       0.40206    0.25000    0.35137    1.000
    C241     C        0.25470    0.25000    0.02610    1.000
    C242     C        0.22210    0.25000    0.94360    1.000
    Tm10     Tm       0.09794    0.75000    0.85137    1.000
    C243     C        0.24530    0.75000    0.52610    1.000
    C244     C        0.27790    0.75000    0.44360    1.000
    Tm11     Tm       0.59794    0.75000    0.64863    1.000
    C245     C        0.74530    0.75000    0.97390    1.000
    C246     C        0.77790    0.75000    0.05640    1.000
    Tm12     Tm       0.90206    0.25000    0.14863    1.000
    C247     C        0.75470    0.25000    0.47390    1.000
    C248     C        0.72210    0.25000    0.55640    1.000
