# CIF file generated by openbabel 3.1.0, see https://openbabel.org
data_I
_chemical_name_common 'image0'
_cell_length_a 11.5776
_cell_length_b 16.2984
_cell_length_c 12.0326
_cell_angle_alpha 90
_cell_angle_beta 112.5
_cell_angle_gamma 90
_space_group_name_H-M_alt 'P 1'
_space_group_name_Hall 'P 1'
loop_
    _symmetry_equiv_pos_as_xyz
    x,y,z
loop_
    _atom_site_label
    _atom_site_type_symbol
    _atom_site_fract_x
    _atom_site_fract_y
    _atom_site_fract_z
    _atom_site_occupancy
    Eu1      Eu       0.19420    0.02722    0.57810    1.000
    S1       S        0.05370    0.21823    0.21141    1.000
    S2       S        0.48969    0.28276    0.75153    1.000
    O1       O        0.13290    0.07810    0.37720    1.000
    O2       O        0.94240    0.03090    0.34600    1.000
    O3       O        0.05590    0.36290    0.06760    1.000
    O4       O        0.85660    0.39950    0.02270    1.000
    O5       O        0.27510    0.10420    0.78100    1.000
    O6       O        0.34140    0.13940    0.63870    1.000
    O7       O        0.64580    0.43320    0.79160    1.000
    O8       O        0.62130    0.47590    0.95670    1.000
    C1       C        0.95850    0.15220    0.24890    1.000
    C2       C        0.83630    0.17620    0.20170    1.000
    H1       H        0.77210    0.14820    0.21370    1.000
    C3       C        0.81890    0.24830    0.13300    1.000
    H2       H        0.74160    0.27320    0.09430    1.000
    C4       C        0.92860    0.27800    0.12920    1.000
    C5       C        0.01550    0.08280    0.32830    1.000
    C6       C        0.94880    0.35270    0.06870    1.000
    C7       C        0.39400    0.22770    0.80320    1.000
    C8       C        0.38350    0.26480    0.90240    1.000
    H3       H        0.33660    0.24370    0.94360    1.000
    C9       C        0.45200    0.33780    0.93320    1.000
    H4       H        0.45330    0.37150    0.99600    1.000
    C10      C        0.51570    0.35420    0.86270    1.000
    C11      C        0.33220    0.15230    0.73790    1.000
    C12      C        0.59890    0.42550    0.87070    1.000
    Eu2      Eu       0.80580    0.52722    0.92190    1.000
    S3       S        0.94630    0.71823    0.28859    1.000
    S4       S        0.51031    0.78276    0.74847    1.000
    O9       O        0.86710    0.57810    0.12280    1.000
    O10      O        0.05760    0.53090    0.15400    1.000
    O11      O        0.94410    0.86290    0.43240    1.000
    O12      O        0.14340    0.89950    0.47730    1.000
    O13      O        0.72490    0.60420    0.71900    1.000
    O14      O        0.65860    0.63940    0.86130    1.000
    O15      O        0.35420    0.93320    0.70840    1.000
    O16      O        0.37870    0.97590    0.54330    1.000
    C13      C        0.04150    0.65220    0.25110    1.000
    C14      C        0.16370    0.67620    0.29830    1.000
    H5       H        0.22790    0.64820    0.28630    1.000
    C15      C        0.18110    0.74830    0.36700    1.000
    H6       H        0.25840    0.77320    0.40570    1.000
    C16      C        0.07140    0.77800    0.37080    1.000
    C17      C        0.98450    0.58280    0.17170    1.000
    C18      C        0.05120    0.85270    0.43130    1.000
    C19      C        0.60600    0.72770    0.69680    1.000
    C20      C        0.61650    0.76480    0.59760    1.000
    H7       H        0.66340    0.74370    0.55640    1.000
    C21      C        0.54800    0.83780    0.56680    1.000
    H8       H        0.54670    0.87150    0.50400    1.000
    C22      C        0.48430    0.85420    0.63730    1.000
    C23      C        0.66780    0.65230    0.76210    1.000
    C24      C        0.40110    0.92550    0.62930    1.000
    Eu3      Eu       0.80580    0.97278    0.42190    1.000
    S5       S        0.94630    0.78177    0.78859    1.000
    S6       S        0.51031    0.71724    0.24847    1.000
    O17      O        0.86710    0.92190    0.62280    1.000
    O18      O        0.05760    0.96910    0.65400    1.000
    O19      O        0.94410    0.63710    0.93240    1.000
    O20      O        0.14340    0.60050    0.97730    1.000
    O21      O        0.72490    0.89580    0.21900    1.000
    O22      O        0.65860    0.86060    0.36130    1.000
    O23      O        0.35420    0.56680    0.20840    1.000
    O24      O        0.37870    0.52410    0.04330    1.000
    C25      C        0.04150    0.84780    0.75110    1.000
    C26      C        0.16370    0.82380    0.79830    1.000
    H9       H        0.22790    0.85180    0.78630    1.000
    C27      C        0.18110    0.75170    0.86700    1.000
    H10      H        0.25840    0.72680    0.90570    1.000
    C28      C        0.07140    0.72200    0.87080    1.000
    C29      C        0.98450    0.91720    0.67170    1.000
    C30      C        0.05120    0.64730    0.93130    1.000
    C31      C        0.60600    0.77230    0.19680    1.000
    C32      C        0.61650    0.73520    0.09760    1.000
    H11      H        0.66340    0.75630    0.05640    1.000
    C33      C        0.54800    0.66220    0.06680    1.000
    H12      H        0.54670    0.62850    0.00400    1.000
    C34      C        0.48430    0.64580    0.13730    1.000
    C35      C        0.66780    0.84770    0.26210    1.000
    C36      C        0.40110    0.57450    0.12930    1.000
    Eu4      Eu       0.19420    0.47278    0.07810    1.000
    S7       S        0.05370    0.28177    0.71141    1.000
    S8       S        0.48969    0.21724    0.25153    1.000
    O25      O        0.13290    0.42190    0.87720    1.000
    O26      O        0.94240    0.46910    0.84600    1.000
    O27      O        0.05590    0.13710    0.56760    1.000
    O28      O        0.85660    0.10050    0.52270    1.000
    O29      O        0.27510    0.39580    0.28100    1.000
    O30      O        0.34140    0.36060    0.13870    1.000
    O31      O        0.64580    0.06680    0.29160    1.000
    O32      O        0.62130    0.02410    0.45670    1.000
    C37      C        0.95850    0.34780    0.74890    1.000
    C38      C        0.83630    0.32380    0.70170    1.000
    H13      H        0.77210    0.35180    0.71370    1.000
    C39      C        0.81890    0.25170    0.63300    1.000
    H14      H        0.74160    0.22680    0.59430    1.000
    C40      C        0.92860    0.22200    0.62920    1.000
    C41      C        0.01550    0.41720    0.82830    1.000
    C42      C        0.94880    0.14730    0.56870    1.000
    C43      C        0.39400    0.27230    0.30320    1.000
    C44      C        0.38350    0.23520    0.40240    1.000
    H15      H        0.33660    0.25630    0.44360    1.000
    C45      C        0.45200    0.16220    0.43320    1.000
    H16      H        0.45330    0.12850    0.49600    1.000
    C46      C        0.51570    0.14580    0.36270    1.000
    C47      C        0.33220    0.34770    0.23790    1.000
    C48      C        0.59890    0.07450    0.37070    1.000
