# CIF file generated by openbabel 3.1.0, see https://openbabel.org
data_I
_chemical_name_common 'RIYDEJ_clean'
_cell_length_a 10.4821
_cell_length_b 10.4821
_cell_length_c 13.9283
_cell_angle_alpha 90
_cell_angle_beta 90
_cell_angle_gamma 90
_space_group_name_H-M_alt 'P 1'
_space_group_name_Hall 'P 1'
loop_
    _symmetry_equiv_pos_as_xyz
    x,y,z
loop_
    _atom_site_label
    _atom_site_type_symbol
    _atom_site_fract_x
    _atom_site_fract_y
    _atom_site_fract_z
    _atom_site_occupancy
    Na1      Na       0.59700    0.59700    0.00000    1.000
    Na2      Na       0.40300    0.40300    0.50000    1.000
    Na3      Na       0.90300    0.09700    0.75000    1.000
    Na4      Na       0.09700    0.90300    0.25000    1.000
    H1       H        0.55270    0.64380    0.76880    1.000
    H2       H        0.69320    0.94890    0.64190    1.000
    H3       H        0.58590    0.88670    0.49920    1.000
    H4       H        0.47230    0.69870    0.49330    1.000
    H5       H        0.44730    0.35620    0.26880    1.000
    H6       H        0.30680    0.05110    0.14190    1.000
    H7       H        0.41410    0.11330    0.99920    1.000
    H8       H        0.52770    0.30130    0.99330    1.000
    H9       H        0.85620    0.05270    0.51880    1.000
    H10      H        0.55110    0.19320    0.39190    1.000
    H11      H        0.61330    0.08590    0.24920    1.000
    H12      H        0.80130    0.97230    0.24330    1.000
    H13      H        0.14380    0.94730    0.01880    1.000
    H14      H        0.44890    0.80680    0.89190    1.000
    H15      H        0.38670    0.91410    0.74920    1.000
    H16      H        0.19870    0.02770    0.74330    1.000
    H17      H        0.94730    0.14380    0.98120    1.000
    H18      H        0.80680    0.44890    0.10810    1.000
    H19      H        0.91410    0.38670    0.25080    1.000
    H20      H        0.02770    0.19870    0.25670    1.000
    H21      H        0.05270    0.85620    0.48120    1.000
    H22      H        0.19320    0.55110    0.60810    1.000
    H23      H        0.08590    0.61330    0.75080    1.000
    H24      H        0.97230    0.80130    0.75670    1.000
    H25      H        0.64380    0.55270    0.23120    1.000
    H26      H        0.94890    0.69320    0.35810    1.000
    H27      H        0.88670    0.58590    0.50080    1.000
    H28      H        0.69870    0.47230    0.50670    1.000
    H29      H        0.35620    0.44730    0.73120    1.000
    H30      H        0.05110    0.30680    0.85810    1.000
    H31      H        0.11330    0.41410    0.00080    1.000
    H32      H        0.30130    0.52770    0.00670    1.000
    C1       C        0.69960    0.82490    0.81400    1.000
    C2       C        0.63360    0.79700    0.71890    1.000
    C3       C        0.64470    0.87240    0.64000    1.000
    C4       C        0.58170    0.83380    0.55450    1.000
    C5       C        0.51530    0.72200    0.55070    1.000
    C6       C        0.51000    0.63890    0.63310    1.000
    C7       C        0.30040    0.17510    0.31400    1.000
    C8       C        0.36640    0.20300    0.21890    1.000
    C9       C        0.35530    0.12760    0.14000    1.000
    C10      C        0.41830    0.16620    0.05450    1.000
    C11      C        0.48470    0.27800    0.05070    1.000
    C12      C        0.49000    0.36110    0.13310    1.000
    C13      C        0.67510    0.19960    0.56400    1.000
    C14      C        0.70300    0.13360    0.46890    1.000
    C15      C        0.62760    0.14470    0.39000    1.000
    C16      C        0.66620    0.08170    0.30450    1.000
    C17      C        0.77800    0.01530    0.30070    1.000
    C18      C        0.86110    0.01000    0.38310    1.000
    C19      C        0.32490    0.80040    0.06400    1.000
    C20      C        0.29700    0.86640    0.96890    1.000
    C21      C        0.37240    0.85530    0.89000    1.000
    C22      C        0.33380    0.91830    0.80450    1.000
    C23      C        0.22200    0.98470    0.80070    1.000
    C24      C        0.13890    0.99000    0.88310    1.000
    C25      C        0.80040    0.32490    0.93600    1.000
    C26      C        0.86640    0.29700    0.03110    1.000
    C27      C        0.85530    0.37240    0.11000    1.000
    C28      C        0.91830    0.33380    0.19550    1.000
    C29      C        0.98470    0.22200    0.19930    1.000
    C30      C        0.99000    0.13890    0.11690    1.000
    C31      C        0.19960    0.67510    0.43600    1.000
    C32      C        0.13360    0.70300    0.53110    1.000
    C33      C        0.14470    0.62760    0.61000    1.000
    C34      C        0.08170    0.66620    0.69550    1.000
    C35      C        0.01530    0.77800    0.69930    1.000
    C36      C        0.01000    0.86110    0.61690    1.000
    C37      C        0.82490    0.69960    0.18600    1.000
    C38      C        0.79700    0.63360    0.28110    1.000
    C39      C        0.87240    0.64470    0.36000    1.000
    C40      C        0.83380    0.58170    0.44550    1.000
    C41      C        0.72200    0.51530    0.44930    1.000
    C42      C        0.63890    0.51000    0.36690    1.000
    C43      C        0.17510    0.30040    0.68600    1.000
    C44      C        0.20300    0.36640    0.78110    1.000
    C45      C        0.12760    0.35530    0.86000    1.000
    C46      C        0.16620    0.41830    0.94550    1.000
    C47      C        0.27800    0.48470    0.94930    1.000
    C48      C        0.36110    0.49000    0.86690    1.000
    N1       N        0.56380    0.68670    0.71510    1.000
    N2       N        0.43620    0.31330    0.21510    1.000
    N3       N        0.81330    0.06380    0.46510    1.000
    N4       N        0.18670    0.93620    0.96510    1.000
    N5       N        0.93620    0.18670    0.03490    1.000
    N6       N        0.06380    0.81330    0.53490    1.000
    N7       N        0.68670    0.56380    0.28490    1.000
    N8       N        0.31330    0.43620    0.78490    1.000
    O1       O        0.68040    0.74760    0.88180    1.000
    O2       O        0.77240    0.91980    0.81580    1.000
    O3       O        0.46340    0.52880    0.63240    1.000
    O4       O        0.31960    0.25240    0.38180    1.000
    O5       O        0.22760    0.08020    0.31580    1.000
    O6       O        0.53660    0.47120    0.13240    1.000
    O7       O        0.75240    0.18040    0.63180    1.000
    O8       O        0.58020    0.27240    0.56580    1.000
    O9       O        0.97120    0.96340    0.38240    1.000
    O10      O        0.24760    0.81960    0.13180    1.000
    O11      O        0.41980    0.72760    0.06580    1.000
    O12      O        0.02880    0.03660    0.88240    1.000
    O13      O        0.81960    0.24760    0.86820    1.000
    O14      O        0.72760    0.41980    0.93420    1.000
    O15      O        0.03660    0.02880    0.11760    1.000
    O16      O        0.18040    0.75240    0.36820    1.000
    O17      O        0.27240    0.58020    0.43420    1.000
    O18      O        0.96340    0.97120    0.61760    1.000
    O19      O        0.74760    0.68040    0.11820    1.000
    O20      O        0.91980    0.77240    0.18420    1.000
    O21      O        0.52880    0.46340    0.36760    1.000
    O22      O        0.25240    0.31960    0.61820    1.000
    O23      O        0.08020    0.22760    0.68420    1.000
    O24      O        0.47120    0.53660    0.86760    1.000
