# CIF file generated by openbabel 3.1.0, see https://openbabel.org
data_I
_chemical_name_common 'image0'
_cell_length_a 14.2624
_cell_length_b 23.826
_cell_length_c 30.75
_cell_angle_alpha 90
_cell_angle_beta 90
_cell_angle_gamma 90
_space_group_name_H-M_alt 'P 1'
_space_group_name_Hall 'P 1'
loop_
    _symmetry_equiv_pos_as_xyz
    x,y,z
loop_
    _atom_site_label
    _atom_site_type_symbol
    _atom_site_fract_x
    _atom_site_fract_y
    _atom_site_fract_z
    _atom_site_occupancy
    O1       O        0.28280    0.90960    0.94980    1.000
    Ag1      Ag       0.29983    0.93476    0.01929    1.000
    N1       N        0.24320    0.87320    0.07180    1.000
    O2       O        0.34610    0.00420    0.06810    1.000
    C1       C        0.19290    0.82660    0.06900    1.000
    C2       C        0.26880    0.88760    0.11200    1.000
    C3       C        0.16510    0.79600    0.10490    1.000
    H1       H        0.17510    0.81360    0.04100    1.000
    C4       C        0.24280    0.85740    0.14830    1.000
    H2       H        0.30660    0.92010    0.11580    1.000
    N2       N        0.18960    0.81030    0.14440    1.000
    H3       H        0.12710    0.76360    0.10070    1.000
    H4       H        0.26210    0.86960    0.17630    1.000
    Ag2      Ag       0.14891    0.76642    0.21114    1.000
    O3       O        0.22390    0.82650    0.25340    1.000
    O4       O        0.07150    0.69500    0.18400    1.000
    C5       C        0.20890    0.83010    0.29350    1.000
    C6       C        0.02840    0.65910    0.20570    1.000
    O5       O        0.15950    0.79750    0.31610    1.000
    C7       C        0.25770    0.87920    0.31660    1.000
    O6       O        0.01900    0.65880    0.24620    1.000
    C8       C        0.98550    0.61300    0.17970    1.000
    Ag3      Ag       0.08746    0.72217    0.28938    1.000
    C9       C        0.31530    0.91390    0.29370    1.000
    C10      C        0.24340    0.88650    0.36070    1.000
    C11      C        0.92750    0.57130    0.20000    1.000
    C12      C        0.99490    0.61070    0.13490    1.000
    N3       N        0.04530    0.68330    0.35630    1.000
    H5       H        0.32340    0.90800    0.26340    1.000
    C13      C        0.36250    0.95790    0.31360    1.000
    C14      C        0.28880    0.93100    0.38230    1.000
    H6       H        0.20340    0.86180    0.37620    1.000
    C15      C        0.88560    0.53070    0.17430    1.000
    H7       H        0.91800    0.57160    0.23050    1.000
    C16      C        0.95330    0.56920    0.11070    1.000
    H8       H        0.03110    0.63860    0.12060    1.000
    Ag4      Ag       0.97775    0.55554    0.48556    1.000
    C17      C        0.98670    0.63990    0.35680    1.000
    C18      C        0.08310    0.69860    0.39600    1.000
    C19      C        0.34870    0.96580    0.35890    1.000
    H9       H        0.40280    0.98190    0.29750    1.000
    C20      C        0.27330    0.94150    0.42970    1.000
    C21      C        0.89580    0.52980    0.13060    1.000
    H10      H        0.84850    0.50250    0.18780    1.000
    C22      C        0.96940    0.56600    0.06290    1.000
    O7       O        0.99120    0.58410    0.55300    1.000
    C23      C        0.96220    0.61210    0.39500    1.000
    H11      H        0.96050    0.62740    0.33010    1.000
    C24      C        0.06080    0.66980    0.43290    1.000
    H12      H        0.12510    0.72950    0.39760    1.000
    H13      H        0.38080    0.99530    0.37350    1.000
    O8       O        0.31530    0.98390    0.44580    1.000
    H14      H        0.86400    0.50240    0.11370    1.000
    O9       O        0.02490    0.60230    0.04450    1.000
    O10      O        0.92900    0.52910    0.03990    1.000
    C25      C        0.03920    0.55050    0.57690    1.000
    N4       N        0.00350    0.62570    0.43230    1.000
    H15      H        0.91600    0.58340    0.39440    1.000
    H16      H        0.08680    0.68160    0.45990    1.000
    Ag5      Ag       0.25162    0.04887    0.49337    1.000
    Ag6      Ag       0.00058    0.56029    0.97117    1.000
    O11      O        0.07620    0.50690    0.56250    1.000
    C26      C        0.04720    0.56320    0.62480    1.000
    N5       N        0.98320    0.62720    0.91990    1.000
    C27      C        0.10020    0.52830    0.65150    1.000
    C28      C        0.00280    0.60840    0.64260    1.000
    C29      C        0.93500    0.67420    0.92510    1.000
    C30      C        0.00760    0.61340    0.87980    1.000
    C31      C        0.10590    0.53740    0.69510    1.000
    H17      H        0.13300    0.49760    0.63900    1.000
    C32      C        0.00790    0.61890    0.68710    1.000
    H18      H        0.96800    0.63300    0.62440    1.000
    C33      C        0.90800    0.70650    0.88970    1.000
    H19      H        0.91840    0.68590    0.95360    1.000
    C34      C        0.98420    0.64720    0.84460    1.000
    H20      H        0.04180    0.57970    0.87490    1.000
    C35      C        0.05940    0.58160    0.71390    1.000
    H21      H        0.14250    0.51290    0.71260    1.000
    C36      C        0.95770    0.66930    0.70610    1.000
    N6       N        0.93640    0.69320    0.84890    1.000
    H22      H        0.86930    0.73840    0.89420    1.000
    H23      H        0.00400    0.63630    0.81630    1.000
    H24      H        0.06160    0.58700    0.74450    1.000
    O12      O        0.96640    0.67630    0.74700    1.000
    O13      O        0.91580    0.70020    0.68010    1.000
    Ag7      Ag       0.88874    0.73891    0.78350    1.000
    Ag8      Ag       0.84176    0.77721    0.70043    1.000
    O14      O        0.81370    0.81140    0.80570    1.000
    O15      O        0.77320    0.84420    0.73940    1.000
    N7       N        0.79710    0.81610    0.63260    1.000
    C37      C        0.77470    0.84620    0.78000    1.000
    C38      C        0.82740    0.80070    0.59360    1.000
    C39      C        0.74300    0.86300    0.63450    1.000
    C40      C        0.72610    0.89620    0.80170    1.000
    C41      C        0.81150    0.83080    0.55680    1.000
    H25      H        0.86210    0.76690    0.59130    1.000
    C42      C        0.72590    0.89210    0.59700    1.000
    H26      H        0.71750    0.87540    0.66130    1.000
    C43      C        0.73550    0.90190    0.84620    1.000
    C44      C        0.67730    0.93330    0.77740    1.000
    H27      H        0.83820    0.81900    0.53000    1.000
    N8       N        0.75760    0.87750    0.55810    1.000
    H28      H        0.68880    0.92510    0.59900    1.000
    C45      C        0.68970    0.94720    0.86730    1.000
    H29      H        0.77210    0.87600    0.86240    1.000
    C46      C        0.62970    0.97790    0.79820    1.000
    H30      H        0.67500    0.92950    0.74670    1.000
    C47      C        0.63630    0.98390    0.84190    1.000
    C48      C        0.69930    0.95600    0.91560    1.000
    H31      H        0.59330    0.00360    0.78170    1.000
    O16      O        0.75450    0.92000    0.43700    1.000
    H32      H        0.60380    0.01380    0.85570    1.000
    O17      O        0.21720    0.59040    0.94980    1.000
    Ag9      Ag       0.20017    0.56524    0.01929    1.000
    N9       N        0.25680    0.62680    0.07180    1.000
    O18      O        0.15390    0.49580    0.06810    1.000
    C49      C        0.30710    0.67340    0.06900    1.000
    C50      C        0.23120    0.61240    0.11200    1.000
    C51      C        0.33490    0.70400    0.10490    1.000
    H33      H        0.32490    0.68640    0.04100    1.000
    C52      C        0.25720    0.64260    0.14830    1.000
    H34      H        0.19340    0.57990    0.11580    1.000
    N10      N        0.31040    0.68970    0.14440    1.000
    H35      H        0.37290    0.73640    0.10070    1.000
    H36      H        0.23790    0.63040    0.17630    1.000
    Ag10     Ag       0.35109    0.73358    0.21114    1.000
    O19      O        0.27610    0.67350    0.25340    1.000
    O20      O        0.42850    0.80500    0.18400    1.000
    C53      C        0.29110    0.66990    0.29350    1.000
    C54      C        0.47160    0.84090    0.20570    1.000
    O21      O        0.34050    0.70250    0.31610    1.000
    C55      C        0.24230    0.62080    0.31660    1.000
    O22      O        0.48100    0.84120    0.24620    1.000
    C56      C        0.51450    0.88700    0.17970    1.000
    Ag11     Ag       0.41254    0.77783    0.28938    1.000
    C57      C        0.18470    0.58610    0.29370    1.000
    C58      C        0.25660    0.61350    0.36070    1.000
    C59      C        0.57250    0.92870    0.20000    1.000
    C60      C        0.50510    0.88930    0.13490    1.000
    N11      N        0.45470    0.81670    0.35630    1.000
    H37      H        0.17660    0.59200    0.26340    1.000
    C61      C        0.13750    0.54210    0.31360    1.000
    C62      C        0.21120    0.56900    0.38230    1.000
    H38      H        0.29660    0.63820    0.37620    1.000
    C63      C        0.61440    0.96930    0.17430    1.000
    H39      H        0.58200    0.92840    0.23050    1.000
    C64      C        0.54670    0.93080    0.11070    1.000
    H40      H        0.46890    0.86140    0.12060    1.000
    Ag12     Ag       0.52225    0.94446    0.48556    1.000
    C65      C        0.51330    0.86010    0.35680    1.000
    C66      C        0.41690    0.80140    0.39600    1.000
    C67      C        0.15130    0.53420    0.35890    1.000
    H41      H        0.09720    0.51810    0.29750    1.000
    C68      C        0.22670    0.55850    0.42970    1.000
    C69      C        0.60420    0.97020    0.13060    1.000
    H42      H        0.65150    0.99750    0.18780    1.000
    C70      C        0.53060    0.93400    0.06290    1.000
    O23      O        0.50880    0.91590    0.55300    1.000
    C71      C        0.53780    0.88790    0.39500    1.000
    H43      H        0.53950    0.87260    0.33010    1.000
    C72      C        0.43920    0.83020    0.43290    1.000
    H44      H        0.37490    0.77050    0.39760    1.000
    H45      H        0.11920    0.50470    0.37350    1.000
    O24      O        0.18470    0.51610    0.44580    1.000
    H46      H        0.63600    0.99760    0.11370    1.000
    O25      O        0.47510    0.89770    0.04450    1.000
    O26      O        0.57100    0.97090    0.03990    1.000
    C73      C        0.46080    0.94950    0.57690    1.000
    N12      N        0.49650    0.87430    0.43230    1.000
    H47      H        0.58400    0.91660    0.39440    1.000
    H48      H        0.41320    0.81840    0.45990    1.000
    Ag13     Ag       0.24838    0.45113    0.49337    1.000
    Ag14     Ag       0.49942    0.93971    0.97117    1.000
    O27      O        0.42380    0.99310    0.56250    1.000
    C74      C        0.45280    0.93680    0.62480    1.000
    N13      N        0.51680    0.87280    0.91990    1.000
    C75      C        0.39980    0.97170    0.65150    1.000
    C76      C        0.49720    0.89160    0.64260    1.000
    C77      C        0.56500    0.82580    0.92510    1.000
    C78      C        0.49240    0.88660    0.87980    1.000
    C79      C        0.39410    0.96260    0.69510    1.000
    H49      H        0.36700    0.00240    0.63900    1.000
    C80      C        0.49210    0.88110    0.68710    1.000
    H50      H        0.53200    0.86700    0.62440    1.000
    C81      C        0.59200    0.79350    0.88970    1.000
    H51      H        0.58160    0.81410    0.95360    1.000
    C82      C        0.51580    0.85280    0.84460    1.000
    H52      H        0.45820    0.92030    0.87490    1.000
    C83      C        0.44060    0.91840    0.71390    1.000
    H53      H        0.35750    0.98710    0.71260    1.000
    C84      C        0.54230    0.83070    0.70610    1.000
    N14      N        0.56360    0.80680    0.84890    1.000
    H54      H        0.63070    0.76160    0.89420    1.000
    H55      H        0.49600    0.86370    0.81630    1.000
    H56      H        0.43840    0.91300    0.74450    1.000
    O28      O        0.53360    0.82370    0.74700    1.000
    O29      O        0.58420    0.79980    0.68010    1.000
    Ag15     Ag       0.61126    0.76109    0.78350    1.000
    Ag16     Ag       0.65824    0.72279    0.70043    1.000
    O30      O        0.68630    0.68860    0.80570    1.000
    O31      O        0.72680    0.65580    0.73940    1.000
    N15      N        0.70290    0.68390    0.63260    1.000
    C85      C        0.72530    0.65380    0.78000    1.000
    C86      C        0.67260    0.69930    0.59360    1.000
    C87      C        0.75700    0.63700    0.63450    1.000
    C88      C        0.77390    0.60380    0.80170    1.000
    C89      C        0.68850    0.66920    0.55680    1.000
    H57      H        0.63790    0.73310    0.59130    1.000
    C90      C        0.77410    0.60790    0.59700    1.000
    H58      H        0.78250    0.62460    0.66130    1.000
    C91      C        0.76450    0.59810    0.84620    1.000
    C92      C        0.82270    0.56670    0.77740    1.000
    H59      H        0.66180    0.68100    0.53000    1.000
    N16      N        0.74240    0.62250    0.55810    1.000
    H60      H        0.81120    0.57490    0.59900    1.000
    C93      C        0.81030    0.55280    0.86730    1.000
    H61      H        0.72790    0.62400    0.86240    1.000
    C94      C        0.87030    0.52210    0.79820    1.000
    H62      H        0.82500    0.57050    0.74670    1.000
    C95      C        0.86370    0.51610    0.84190    1.000
    C96      C        0.80070    0.54400    0.91560    1.000
    H63      H        0.90670    0.49640    0.78170    1.000
    O32      O        0.74550    0.58000    0.43700    1.000
    H64      H        0.89620    0.48620    0.85570    1.000
    O33      O        0.71720    0.40960    0.55020    1.000
    Ag17     Ag       0.70017    0.43476    0.48071    1.000
    N17      N        0.75680    0.37320    0.42820    1.000
    O34      O        0.65390    0.50420    0.43190    1.000
    C97      C        0.80710    0.32660    0.43100    1.000
    C98      C        0.73120    0.38760    0.38800    1.000
    C99      C        0.83490    0.29600    0.39510    1.000
    H65      H        0.82490    0.31360    0.45900    1.000
    C100     C        0.75720    0.35740    0.35170    1.000
    H66      H        0.69340    0.42010    0.38420    1.000
    N18      N        0.81040    0.31030    0.35560    1.000
    H67      H        0.87290    0.26360    0.39930    1.000
    H68      H        0.73790    0.36960    0.32370    1.000
    Ag18     Ag       0.85109    0.26642    0.28886    1.000
    O35      O        0.77610    0.32650    0.24660    1.000
    O36      O        0.92850    0.19500    0.31600    1.000
    C101     C        0.79110    0.33010    0.20650    1.000
    C102     C        0.97160    0.15910    0.29430    1.000
    O37      O        0.84050    0.29750    0.18390    1.000
    C103     C        0.74230    0.37920    0.18340    1.000
    O38      O        0.98100    0.15880    0.25380    1.000
    C104     C        0.01450    0.11300    0.32030    1.000
    Ag19     Ag       0.91254    0.22217    0.21062    1.000
    C105     C        0.68470    0.41390    0.20630    1.000
    C106     C        0.75660    0.38650    0.13930    1.000
    C107     C        0.07250    0.07130    0.30000    1.000
    C108     C        0.00510    0.11070    0.36510    1.000
    N19      N        0.95470    0.18330    0.14370    1.000
    H69      H        0.67660    0.40800    0.23660    1.000
    C109     C        0.63750    0.45790    0.18640    1.000
    C110     C        0.71120    0.43100    0.11770    1.000
    H70      H        0.79660    0.36180    0.12380    1.000
    C111     C        0.11440    0.03070    0.32570    1.000
    H71      H        0.08200    0.07160    0.26950    1.000
    C112     C        0.04670    0.06920    0.38930    1.000
    H72      H        0.96890    0.13860    0.37940    1.000
    Ag20     Ag       0.02225    0.05554    0.01444    1.000
    C113     C        0.01330    0.13990    0.14320    1.000
    C114     C        0.91690    0.19860    0.10400    1.000
    C115     C        0.65130    0.46580    0.14110    1.000
    H73      H        0.59720    0.48190    0.20250    1.000
    C116     C        0.72670    0.44150    0.07030    1.000
    C117     C        0.10420    0.02980    0.36940    1.000
    H74      H        0.15150    0.00250    0.31220    1.000
    C118     C        0.03060    0.06600    0.43710    1.000
    O39      O        0.00880    0.08410    0.94700    1.000
    C119     C        0.03780    0.11210    0.10500    1.000
    H75      H        0.03950    0.12740    0.16990    1.000
    C120     C        0.93920    0.16980    0.06710    1.000
    H76      H        0.87490    0.22950    0.10240    1.000
    H77      H        0.61920    0.49530    0.12650    1.000
    O40      O        0.68470    0.48390    0.05420    1.000
    H78      H        0.13600    0.00240    0.38630    1.000
    O41      O        0.97510    0.10230    0.45550    1.000
    O42      O        0.07100    0.02910    0.46010    1.000
    C121     C        0.96080    0.05050    0.92310    1.000
    N20      N        0.99650    0.12570    0.06770    1.000
    H79      H        0.08400    0.08340    0.10560    1.000
    H80      H        0.91320    0.18160    0.04010    1.000
    Ag21     Ag       0.74838    0.54887    0.00663    1.000
    Ag22     Ag       0.99942    0.06029    0.52883    1.000
    O43      O        0.92380    0.00690    0.93750    1.000
    C122     C        0.95280    0.06320    0.87520    1.000
    N21      N        0.01680    0.12720    0.58010    1.000
    C123     C        0.89980    0.02830    0.84850    1.000
    C124     C        0.99720    0.10840    0.85740    1.000
    C125     C        0.06500    0.17420    0.57490    1.000
    C126     C        0.99240    0.11340    0.62020    1.000
    C127     C        0.89410    0.03740    0.80490    1.000
    H81      H        0.86700    0.99760    0.86100    1.000
    C128     C        0.99210    0.11890    0.81290    1.000
    H82      H        0.03200    0.13300    0.87560    1.000
    C129     C        0.09200    0.20650    0.61030    1.000
    H83      H        0.08160    0.18590    0.54640    1.000
    C130     C        0.01580    0.14720    0.65540    1.000
    H84      H        0.95820    0.07970    0.62510    1.000
    C131     C        0.94060    0.08160    0.78610    1.000
    H85      H        0.85750    0.01290    0.78740    1.000
    C132     C        0.04230    0.16930    0.79390    1.000
    N22      N        0.06360    0.19320    0.65110    1.000
    H86      H        0.13070    0.23840    0.60580    1.000
    H87      H        0.99600    0.13630    0.68370    1.000
    H88      H        0.93840    0.08700    0.75550    1.000
    O44      O        0.03360    0.17630    0.75300    1.000
    O45      O        0.08420    0.20020    0.81990    1.000
    Ag23     Ag       0.11126    0.23891    0.71650    1.000
    Ag24     Ag       0.15824    0.27721    0.79957    1.000
    O46      O        0.18630    0.31140    0.69430    1.000
    O47      O        0.22680    0.34420    0.76060    1.000
    N23      N        0.20290    0.31610    0.86740    1.000
    C133     C        0.22530    0.34620    0.72000    1.000
    C134     C        0.17260    0.30070    0.90640    1.000
    C135     C        0.25700    0.36300    0.86550    1.000
    C136     C        0.27390    0.39620    0.69830    1.000
    C137     C        0.18850    0.33080    0.94320    1.000
    H89      H        0.13790    0.26690    0.90870    1.000
    C138     C        0.27410    0.39210    0.90300    1.000
    H90      H        0.28250    0.37540    0.83870    1.000
    C139     C        0.26450    0.40190    0.65380    1.000
    C140     C        0.32270    0.43330    0.72260    1.000
    H91      H        0.16180    0.31900    0.97000    1.000
    N24      N        0.24240    0.37750    0.94190    1.000
    H92      H        0.31120    0.42510    0.90100    1.000
    C141     C        0.31030    0.44720    0.63270    1.000
    H93      H        0.22790    0.37600    0.63760    1.000
    C142     C        0.37030    0.47790    0.70180    1.000
    H94      H        0.32500    0.42950    0.75330    1.000
    C143     C        0.36370    0.48390    0.65810    1.000
    C144     C        0.30070    0.45600    0.58440    1.000
    H95      H        0.40670    0.50360    0.71830    1.000
    O48      O        0.24550    0.42000    0.06300    1.000
    H96      H        0.39620    0.51380    0.64430    1.000
    O49      O        0.78280    0.09040    0.55020    1.000
    Ag25     Ag       0.79983    0.06524    0.48071    1.000
    N25      N        0.74320    0.12680    0.42820    1.000
    O50      O        0.84610    0.99580    0.43190    1.000
    C145     C        0.69290    0.17340    0.43100    1.000
    C146     C        0.76880    0.11240    0.38800    1.000
    C147     C        0.66510    0.20400    0.39510    1.000
    H97      H        0.67510    0.18640    0.45900    1.000
    C148     C        0.74280    0.14260    0.35170    1.000
    H98      H        0.80660    0.07990    0.38420    1.000
    N26      N        0.68960    0.18970    0.35560    1.000
    H99      H        0.62710    0.23640    0.39930    1.000
    H100     H        0.76210    0.13040    0.32370    1.000
    Ag26     Ag       0.64891    0.23358    0.28886    1.000
    O51      O        0.72390    0.17350    0.24660    1.000
    O52      O        0.57150    0.30500    0.31600    1.000
    C149     C        0.70890    0.16990    0.20650    1.000
    C150     C        0.52840    0.34090    0.29430    1.000
    O53      O        0.65950    0.20250    0.18390    1.000
    C151     C        0.75770    0.12080    0.18340    1.000
    O54      O        0.51900    0.34120    0.25380    1.000
    C152     C        0.48550    0.38700    0.32030    1.000
    Ag27     Ag       0.58746    0.27783    0.21062    1.000
    C153     C        0.81530    0.08610    0.20630    1.000
    C154     C        0.74340    0.11350    0.13930    1.000
    C155     C        0.42750    0.42870    0.30000    1.000
    C156     C        0.49490    0.38930    0.36510    1.000
    N27      N        0.54530    0.31670    0.14370    1.000
    H101     H        0.82340    0.09200    0.23660    1.000
    C157     C        0.86250    0.04210    0.18640    1.000
    C158     C        0.78880    0.06900    0.11770    1.000
    H102     H        0.70340    0.13820    0.12380    1.000
    C159     C        0.38560    0.46930    0.32570    1.000
    H103     H        0.41800    0.42840    0.26950    1.000
    C160     C        0.45330    0.43080    0.38930    1.000
    H104     H        0.53110    0.36140    0.37940    1.000
    Ag28     Ag       0.47775    0.44446    0.01444    1.000
    C161     C        0.48670    0.36010    0.14320    1.000
    C162     C        0.58310    0.30140    0.10400    1.000
    C163     C        0.84870    0.03420    0.14110    1.000
    H105     H        0.90280    0.01810    0.20250    1.000
    C164     C        0.77330    0.05850    0.07030    1.000
    C165     C        0.39580    0.47020    0.36940    1.000
    H106     H        0.34850    0.49750    0.31220    1.000
    C166     C        0.46940    0.43400    0.43710    1.000
    O55      O        0.49120    0.41590    0.94700    1.000
    C167     C        0.46220    0.38790    0.10500    1.000
    H107     H        0.46050    0.37260    0.16990    1.000
    C168     C        0.56080    0.33020    0.06710    1.000
    H108     H        0.62510    0.27050    0.10240    1.000
    H109     H        0.88080    0.00470    0.12650    1.000
    O56      O        0.81530    0.01610    0.05420    1.000
    H110     H        0.36400    0.49760    0.38630    1.000
    O57      O        0.52490    0.39770    0.45550    1.000
    O58      O        0.42900    0.47090    0.46010    1.000
    C169     C        0.53920    0.44950    0.92310    1.000
    N28      N        0.50350    0.37430    0.06770    1.000
    H111     H        0.41600    0.41660    0.10560    1.000
    H112     H        0.58680    0.31840    0.04010    1.000
    Ag29     Ag       0.75162    0.95113    0.00663    1.000
    Ag30     Ag       0.50058    0.43971    0.52883    1.000
    O59      O        0.57620    0.49310    0.93750    1.000
    C170     C        0.54720    0.43680    0.87520    1.000
    N29      N        0.48320    0.37280    0.58010    1.000
    C171     C        0.60020    0.47170    0.84850    1.000
    C172     C        0.50280    0.39160    0.85740    1.000
    C173     C        0.43500    0.32580    0.57490    1.000
    C174     C        0.50760    0.38660    0.62020    1.000
    C175     C        0.60590    0.46260    0.80490    1.000
    H113     H        0.63300    0.50240    0.86100    1.000
    C176     C        0.50790    0.38110    0.81290    1.000
    H114     H        0.46800    0.36700    0.87560    1.000
    C177     C        0.40800    0.29350    0.61030    1.000
    H115     H        0.41840    0.31410    0.54640    1.000
    C178     C        0.48420    0.35280    0.65540    1.000
    H116     H        0.54180    0.42030    0.62510    1.000
    C179     C        0.55940    0.41840    0.78610    1.000
    H117     H        0.64250    0.48710    0.78740    1.000
    C180     C        0.45770    0.33070    0.79390    1.000
    N30      N        0.43640    0.30680    0.65110    1.000
    H118     H        0.36930    0.26160    0.60580    1.000
    H119     H        0.50400    0.36370    0.68370    1.000
    H120     H        0.56160    0.41300    0.75550    1.000
    O60      O        0.46640    0.32370    0.75300    1.000
    O61      O        0.41580    0.29980    0.81990    1.000
    Ag31     Ag       0.38874    0.26109    0.71650    1.000
    Ag32     Ag       0.34176    0.22279    0.79957    1.000
    O62      O        0.31370    0.18860    0.69430    1.000
    O63      O        0.27320    0.15580    0.76060    1.000
    N31      N        0.29710    0.18390    0.86740    1.000
    C181     C        0.27470    0.15380    0.72000    1.000
    C182     C        0.32740    0.19930    0.90640    1.000
    C183     C        0.24300    0.13700    0.86550    1.000
    C184     C        0.22610    0.10380    0.69830    1.000
    C185     C        0.31150    0.16920    0.94320    1.000
    H121     H        0.36210    0.23310    0.90870    1.000
    C186     C        0.22590    0.10790    0.90300    1.000
    H122     H        0.21750    0.12460    0.83870    1.000
    C187     C        0.23550    0.09810    0.65380    1.000
    C188     C        0.17730    0.06670    0.72260    1.000
    H123     H        0.33820    0.18100    0.97000    1.000
    N32      N        0.25760    0.12250    0.94190    1.000
    H124     H        0.18880    0.07490    0.90100    1.000
    C189     C        0.18970    0.05280    0.63270    1.000
    H125     H        0.27210    0.12400    0.63760    1.000
    C190     C        0.12970    0.02210    0.70180    1.000
    H126     H        0.17500    0.07050    0.75330    1.000
    C191     C        0.13630    0.01610    0.65810    1.000
    C192     C        0.19930    0.04400    0.58440    1.000
    H127     H        0.09330    0.99640    0.71830    1.000
    O64      O        0.25450    0.08000    0.06300    1.000
    H128     H        0.10380    0.98620    0.64430    1.000
    O65      O        0.71720    0.09040    0.05020    1.000
    Ag33     Ag       0.70017    0.06524    0.98071    1.000
    N33      N        0.75680    0.12680    0.92820    1.000
    O66      O        0.65390    0.99580    0.93190    1.000
    C193     C        0.80710    0.17340    0.93100    1.000
    C194     C        0.73120    0.11240    0.88800    1.000
    C195     C        0.83490    0.20400    0.89510    1.000
    H129     H        0.82490    0.18640    0.95900    1.000
    C196     C        0.75720    0.14260    0.85170    1.000
    H130     H        0.69340    0.07990    0.88420    1.000
    N34      N        0.81040    0.18970    0.85560    1.000
    H131     H        0.87290    0.23640    0.89930    1.000
    H132     H        0.73790    0.13040    0.82370    1.000
    Ag34     Ag       0.85109    0.23358    0.78886    1.000
    O67      O        0.77610    0.17350    0.74660    1.000
    O68      O        0.92850    0.30500    0.81600    1.000
    C197     C        0.79110    0.16990    0.70650    1.000
    C198     C        0.97160    0.34090    0.79430    1.000
    O69      O        0.84050    0.20250    0.68390    1.000
    C199     C        0.74230    0.12080    0.68340    1.000
    O70      O        0.98100    0.34120    0.75380    1.000
    C200     C        0.01450    0.38700    0.82030    1.000
    Ag35     Ag       0.91254    0.27783    0.71062    1.000
    C201     C        0.68470    0.08610    0.70630    1.000
    C202     C        0.75660    0.11350    0.63930    1.000
    C203     C        0.07250    0.42870    0.80000    1.000
    C204     C        0.00510    0.38930    0.86510    1.000
    N35      N        0.95470    0.31670    0.64370    1.000
    H133     H        0.67660    0.09200    0.73660    1.000
    C205     C        0.63750    0.04210    0.68640    1.000
    C206     C        0.71120    0.06900    0.61770    1.000
    H134     H        0.79660    0.13820    0.62380    1.000
    C207     C        0.11440    0.46930    0.82570    1.000
    H135     H        0.08200    0.42840    0.76950    1.000
    C208     C        0.04670    0.43080    0.88930    1.000
    H136     H        0.96890    0.36140    0.87940    1.000
    Ag36     Ag       0.02225    0.44446    0.51444    1.000
    C209     C        0.01330    0.36010    0.64320    1.000
    C210     C        0.91690    0.30140    0.60400    1.000
    C211     C        0.65130    0.03420    0.64110    1.000
    H137     H        0.59720    0.01810    0.70250    1.000
    C212     C        0.72670    0.05850    0.57030    1.000
    C213     C        0.10420    0.47020    0.86940    1.000
    H138     H        0.15150    0.49750    0.81220    1.000
    C214     C        0.03060    0.43400    0.93710    1.000
    O71      O        0.00880    0.41590    0.44700    1.000
    C215     C        0.03780    0.38790    0.60500    1.000
    H139     H        0.03950    0.37260    0.66990    1.000
    C216     C        0.93920    0.33020    0.56710    1.000
    H140     H        0.87490    0.27050    0.60240    1.000
    H141     H        0.61920    0.00470    0.62650    1.000
    O72      O        0.68470    0.01610    0.55420    1.000
    H142     H        0.13600    0.49760    0.88630    1.000
    O73      O        0.97510    0.39770    0.95550    1.000
    O74      O        0.07100    0.47090    0.96010    1.000
    C217     C        0.96080    0.44950    0.42310    1.000
    N36      N        0.99650    0.37430    0.56770    1.000
    H143     H        0.08400    0.41660    0.60560    1.000
    H144     H        0.91320    0.31840    0.54010    1.000
    Ag37     Ag       0.74838    0.95113    0.50663    1.000
    Ag38     Ag       0.99942    0.43971    0.02883    1.000
    O75      O        0.92380    0.49310    0.43750    1.000
    C218     C        0.95280    0.43680    0.37520    1.000
    N37      N        0.01680    0.37280    0.08010    1.000
    C219     C        0.89980    0.47170    0.34850    1.000
    C220     C        0.99720    0.39160    0.35740    1.000
    C221     C        0.06500    0.32580    0.07490    1.000
    C222     C        0.99240    0.38660    0.12020    1.000
    C223     C        0.89410    0.46260    0.30490    1.000
    H145     H        0.86700    0.50240    0.36100    1.000
    C224     C        0.99210    0.38110    0.31290    1.000
    H146     H        0.03200    0.36700    0.37560    1.000
    C225     C        0.09200    0.29350    0.11030    1.000
    H147     H        0.08160    0.31410    0.04640    1.000
    C226     C        0.01580    0.35280    0.15540    1.000
    H148     H        0.95820    0.42030    0.12510    1.000
    C227     C        0.94060    0.41840    0.28610    1.000
    H149     H        0.85750    0.48710    0.28740    1.000
    C228     C        0.04230    0.33070    0.29390    1.000
    N38      N        0.06360    0.30680    0.15110    1.000
    H150     H        0.13070    0.26160    0.10580    1.000
    H151     H        0.99600    0.36370    0.18370    1.000
    H152     H        0.93840    0.41300    0.25550    1.000
    O76      O        0.03360    0.32370    0.25300    1.000
    O77      O        0.08420    0.29980    0.31990    1.000
    Ag39     Ag       0.11126    0.26109    0.21650    1.000
    Ag40     Ag       0.15824    0.22279    0.29957    1.000
    O78      O        0.18630    0.18860    0.19430    1.000
    O79      O        0.22680    0.15580    0.26060    1.000
    N39      N        0.20290    0.18390    0.36740    1.000
    C229     C        0.22530    0.15380    0.22000    1.000
    C230     C        0.17260    0.19930    0.40640    1.000
    C231     C        0.25700    0.13700    0.36550    1.000
    C232     C        0.27390    0.10380    0.19830    1.000
    C233     C        0.18850    0.16920    0.44320    1.000
    H153     H        0.13790    0.23310    0.40870    1.000
    C234     C        0.27410    0.10790    0.40300    1.000
    H154     H        0.28250    0.12460    0.33870    1.000
    C235     C        0.26450    0.09810    0.15380    1.000
    C236     C        0.32270    0.06670    0.22260    1.000
    H155     H        0.16180    0.18100    0.47000    1.000
    N40      N        0.24240    0.12250    0.44190    1.000
    H156     H        0.31120    0.07490    0.40100    1.000
    C237     C        0.31030    0.05280    0.13270    1.000
    H157     H        0.22790    0.12400    0.13760    1.000
    C238     C        0.37030    0.02210    0.20180    1.000
    H158     H        0.32500    0.07050    0.25330    1.000
    C239     C        0.36370    0.01610    0.15810    1.000
    C240     C        0.30070    0.04400    0.08440    1.000
    H159     H        0.40670    0.99640    0.21830    1.000
    O80      O        0.24550    0.08000    0.56300    1.000
    H160     H        0.39620    0.98620    0.14430    1.000
    O81      O        0.78280    0.40960    0.05020    1.000
    Ag41     Ag       0.79983    0.43476    0.98071    1.000
    N41      N        0.74320    0.37320    0.92820    1.000
    O82      O        0.84610    0.50420    0.93190    1.000
    C241     C        0.69290    0.32660    0.93100    1.000
    C242     C        0.76880    0.38760    0.88800    1.000
    C243     C        0.66510    0.29600    0.89510    1.000
    H161     H        0.67510    0.31360    0.95900    1.000
    C244     C        0.74280    0.35740    0.85170    1.000
    H162     H        0.80660    0.42010    0.88420    1.000
    N42      N        0.68960    0.31030    0.85560    1.000
    H163     H        0.62710    0.26360    0.89930    1.000
    H164     H        0.76210    0.36960    0.82370    1.000
    Ag42     Ag       0.64891    0.26642    0.78886    1.000
    O83      O        0.72390    0.32650    0.74660    1.000
    O84      O        0.57150    0.19500    0.81600    1.000
    C245     C        0.70890    0.33010    0.70650    1.000
    C246     C        0.52840    0.15910    0.79430    1.000
    O85      O        0.65950    0.29750    0.68390    1.000
    C247     C        0.75770    0.37920    0.68340    1.000
    O86      O        0.51900    0.15880    0.75380    1.000
    C248     C        0.48550    0.11300    0.82030    1.000
    Ag43     Ag       0.58746    0.22217    0.71062    1.000
    C249     C        0.81530    0.41390    0.70630    1.000
    C250     C        0.74340    0.38650    0.63930    1.000
    C251     C        0.42750    0.07130    0.80000    1.000
    C252     C        0.49490    0.11070    0.86510    1.000
    N43      N        0.54530    0.18330    0.64370    1.000
    H165     H        0.82340    0.40800    0.73660    1.000
    C253     C        0.86250    0.45790    0.68640    1.000
    C254     C        0.78880    0.43100    0.61770    1.000
    H166     H        0.70340    0.36180    0.62380    1.000
    C255     C        0.38560    0.03070    0.82570    1.000
    H167     H        0.41800    0.07160    0.76950    1.000
    C256     C        0.45330    0.06920    0.88930    1.000
    H168     H        0.53110    0.13860    0.87940    1.000
    Ag44     Ag       0.47775    0.05554    0.51444    1.000
    C257     C        0.48670    0.13990    0.64320    1.000
    C258     C        0.58310    0.19860    0.60400    1.000
    C259     C        0.84870    0.46580    0.64110    1.000
    H169     H        0.90280    0.48190    0.70250    1.000
    C260     C        0.77330    0.44150    0.57030    1.000
    C261     C        0.39580    0.02980    0.86940    1.000
    H170     H        0.34850    0.00250    0.81220    1.000
    C262     C        0.46940    0.06600    0.93710    1.000
    O87      O        0.49120    0.08410    0.44700    1.000
    C263     C        0.46220    0.11210    0.60500    1.000
    H171     H        0.46050    0.12740    0.66990    1.000
    C264     C        0.56080    0.16980    0.56710    1.000
    H172     H        0.62510    0.22950    0.60240    1.000
    H173     H        0.88080    0.49530    0.62650    1.000
    O88      O        0.81530    0.48390    0.55420    1.000
    H174     H        0.36400    0.00240    0.88630    1.000
    O89      O        0.52490    0.10230    0.95550    1.000
    O90      O        0.42900    0.02910    0.96010    1.000
    C265     C        0.53920    0.05050    0.42310    1.000
    N44      N        0.50350    0.12570    0.56770    1.000
    H175     H        0.41600    0.08340    0.60560    1.000
    H176     H        0.58680    0.18160    0.54010    1.000
    Ag45     Ag       0.75162    0.54887    0.50663    1.000
    Ag46     Ag       0.50058    0.06029    0.02883    1.000
    O91      O        0.57620    0.00690    0.43750    1.000
    C266     C        0.54720    0.06320    0.37520    1.000
    N45      N        0.48320    0.12720    0.08010    1.000
    C267     C        0.60020    0.02830    0.34850    1.000
    C268     C        0.50280    0.10840    0.35740    1.000
    C269     C        0.43500    0.17420    0.07490    1.000
    C270     C        0.50760    0.11340    0.12020    1.000
    C271     C        0.60590    0.03740    0.30490    1.000
    H177     H        0.63300    0.99760    0.36100    1.000
    C272     C        0.50790    0.11890    0.31290    1.000
    H178     H        0.46800    0.13300    0.37560    1.000
    C273     C        0.40800    0.20650    0.11030    1.000
    H179     H        0.41840    0.18590    0.04640    1.000
    C274     C        0.48420    0.14720    0.15540    1.000
    H180     H        0.54180    0.07970    0.12510    1.000
    C275     C        0.55940    0.08160    0.28610    1.000
    H181     H        0.64250    0.01290    0.28740    1.000
    C276     C        0.45770    0.16930    0.29390    1.000
    N46      N        0.43640    0.19320    0.15110    1.000
    H182     H        0.36930    0.23840    0.10580    1.000
    H183     H        0.50400    0.13630    0.18370    1.000
    H184     H        0.56160    0.08700    0.25550    1.000
    O92      O        0.46640    0.17630    0.25300    1.000
    O93      O        0.41580    0.20020    0.31990    1.000
    Ag47     Ag       0.38874    0.23891    0.21650    1.000
    Ag48     Ag       0.34176    0.27721    0.29957    1.000
    O94      O        0.31370    0.31140    0.19430    1.000
    O95      O        0.27320    0.34420    0.26060    1.000
    N47      N        0.29710    0.31610    0.36740    1.000
    C277     C        0.27470    0.34620    0.22000    1.000
    C278     C        0.32740    0.30070    0.40640    1.000
    C279     C        0.24300    0.36300    0.36550    1.000
    C280     C        0.22610    0.39620    0.19830    1.000
    C281     C        0.31150    0.33080    0.44320    1.000
    H185     H        0.36210    0.26690    0.40870    1.000
    C282     C        0.22590    0.39210    0.40300    1.000
    H186     H        0.21750    0.37540    0.33870    1.000
    C283     C        0.23550    0.40190    0.15380    1.000
    C284     C        0.17730    0.43330    0.22260    1.000
    H187     H        0.33820    0.31900    0.47000    1.000
    N48      N        0.25760    0.37750    0.44190    1.000
    H188     H        0.18880    0.42510    0.40100    1.000
    C285     C        0.18970    0.44720    0.13270    1.000
    H189     H        0.27210    0.37600    0.13760    1.000
    C286     C        0.12970    0.47790    0.20180    1.000
    H190     H        0.17500    0.42950    0.25330    1.000
    C287     C        0.13630    0.48390    0.15810    1.000
    C288     C        0.19930    0.45600    0.08440    1.000
    H191     H        0.09330    0.50360    0.21830    1.000
    O96      O        0.25450    0.42000    0.56300    1.000
    H192     H        0.10380    0.51380    0.14430    1.000
    O97      O        0.28280    0.59040    0.44980    1.000
    Ag49     Ag       0.29983    0.56524    0.51929    1.000
    N49      N        0.24320    0.62680    0.57180    1.000
    O98      O        0.34610    0.49580    0.56810    1.000
    C289     C        0.19290    0.67340    0.56900    1.000
    C290     C        0.26880    0.61240    0.61200    1.000
    C291     C        0.16510    0.70400    0.60490    1.000
    H193     H        0.17510    0.68640    0.54100    1.000
    C292     C        0.24280    0.64260    0.64830    1.000
    H194     H        0.30660    0.57990    0.61580    1.000
    N50      N        0.18960    0.68970    0.64440    1.000
    H195     H        0.12710    0.73640    0.60070    1.000
    H196     H        0.26210    0.63040    0.67630    1.000
    Ag50     Ag       0.14891    0.73358    0.71114    1.000
    O99      O        0.22390    0.67350    0.75340    1.000
    O100     O        0.07150    0.80500    0.68400    1.000
    C293     C        0.20890    0.66990    0.79350    1.000
    C294     C        0.02840    0.84090    0.70570    1.000
    O101     O        0.15950    0.70250    0.81610    1.000
    C295     C        0.25770    0.62080    0.81660    1.000
    O102     O        0.01900    0.84120    0.74620    1.000
    C296     C        0.98550    0.88700    0.67970    1.000
    Ag51     Ag       0.08746    0.77783    0.78938    1.000
    C297     C        0.31530    0.58610    0.79370    1.000
    C298     C        0.24340    0.61350    0.86070    1.000
    C299     C        0.92750    0.92870    0.70000    1.000
    C300     C        0.99490    0.88930    0.63490    1.000
    N51      N        0.04530    0.81670    0.85630    1.000
    H197     H        0.32340    0.59200    0.76340    1.000
    C301     C        0.36250    0.54210    0.81360    1.000
    C302     C        0.28880    0.56900    0.88230    1.000
    H198     H        0.20340    0.63820    0.87620    1.000
    C303     C        0.88560    0.96930    0.67430    1.000
    H199     H        0.91800    0.92840    0.73050    1.000
    C304     C        0.95330    0.93080    0.61070    1.000
    H200     H        0.03110    0.86140    0.62060    1.000
    Ag52     Ag       0.97775    0.94446    0.98556    1.000
    C305     C        0.98670    0.86010    0.85680    1.000
    C306     C        0.08310    0.80140    0.89600    1.000
    C307     C        0.34870    0.53420    0.85890    1.000
    H201     H        0.40280    0.51810    0.79750    1.000
    C308     C        0.27330    0.55850    0.92970    1.000
    C309     C        0.89580    0.97020    0.63060    1.000
    H202     H        0.84850    0.99750    0.68780    1.000
    C310     C        0.96940    0.93400    0.56290    1.000
    O103     O        0.99120    0.91590    0.05300    1.000
    C311     C        0.96220    0.88790    0.89500    1.000
    H203     H        0.96050    0.87260    0.83010    1.000
    C312     C        0.06080    0.83020    0.93290    1.000
    H204     H        0.12510    0.77050    0.89760    1.000
    H205     H        0.38080    0.50470    0.87350    1.000
    O104     O        0.31530    0.51610    0.94580    1.000
    H206     H        0.86400    0.99760    0.61370    1.000
    O105     O        0.02490    0.89770    0.54450    1.000
    O106     O        0.92900    0.97090    0.53990    1.000
    C313     C        0.03920    0.94950    0.07690    1.000
    N52      N        0.00350    0.87430    0.93230    1.000
    H207     H        0.91600    0.91660    0.89440    1.000
    H208     H        0.08680    0.81840    0.95990    1.000
    Ag53     Ag       0.25162    0.45113    0.99337    1.000
    Ag54     Ag       0.00058    0.93971    0.47117    1.000
    O107     O        0.07620    0.99310    0.06250    1.000
    C314     C        0.04720    0.93680    0.12480    1.000
    N53      N        0.98320    0.87280    0.41990    1.000
    C315     C        0.10020    0.97170    0.15150    1.000
    C316     C        0.00280    0.89160    0.14260    1.000
    C317     C        0.93500    0.82580    0.42510    1.000
    C318     C        0.00760    0.88660    0.37980    1.000
    C319     C        0.10590    0.96260    0.19510    1.000
    H209     H        0.13300    0.00240    0.13900    1.000
    C320     C        0.00790    0.88110    0.18710    1.000
    H210     H        0.96800    0.86700    0.12440    1.000
    C321     C        0.90800    0.79350    0.38970    1.000
    H211     H        0.91840    0.81410    0.45360    1.000
    C322     C        0.98420    0.85280    0.34460    1.000
    H212     H        0.04180    0.92030    0.37490    1.000
    C323     C        0.05940    0.91840    0.21390    1.000
    H213     H        0.14250    0.98710    0.21260    1.000
    C324     C        0.95770    0.83070    0.20610    1.000
    N54      N        0.93640    0.80680    0.34890    1.000
    H214     H        0.86930    0.76160    0.39420    1.000
    H215     H        0.00400    0.86370    0.31630    1.000
    H216     H        0.06160    0.91300    0.24450    1.000
    O108     O        0.96640    0.82370    0.24700    1.000
    O109     O        0.91580    0.79980    0.18010    1.000
    Ag55     Ag       0.88874    0.76109    0.28350    1.000
    Ag56     Ag       0.84176    0.72279    0.20043    1.000
    O110     O        0.81370    0.68860    0.30570    1.000
    O111     O        0.77320    0.65580    0.23940    1.000
    N55      N        0.79710    0.68390    0.13260    1.000
    C325     C        0.77470    0.65380    0.28000    1.000
    C326     C        0.82740    0.69930    0.09360    1.000
    C327     C        0.74300    0.63700    0.13450    1.000
    C328     C        0.72610    0.60380    0.30170    1.000
    C329     C        0.81150    0.66920    0.05680    1.000
    H217     H        0.86210    0.73310    0.09130    1.000
    C330     C        0.72590    0.60790    0.09700    1.000
    H218     H        0.71750    0.62460    0.16130    1.000
    C331     C        0.73550    0.59810    0.34620    1.000
    C332     C        0.67730    0.56670    0.27740    1.000
    H219     H        0.83820    0.68100    0.03000    1.000
    N56      N        0.75760    0.62250    0.05810    1.000
    H220     H        0.68880    0.57490    0.09900    1.000
    C333     C        0.68970    0.55280    0.36730    1.000
    H221     H        0.77210    0.62400    0.36240    1.000
    C334     C        0.62970    0.52210    0.29820    1.000
    H222     H        0.67500    0.57050    0.24670    1.000
    C335     C        0.63630    0.51610    0.34190    1.000
    C336     C        0.69930    0.54400    0.41560    1.000
    H223     H        0.59330    0.49640    0.28170    1.000
    O112     O        0.75450    0.58000    0.93700    1.000
    H224     H        0.60380    0.48620    0.35570    1.000
    O113     O        0.21720    0.90960    0.44980    1.000
    Ag57     Ag       0.20017    0.93476    0.51929    1.000
    N57      N        0.25680    0.87320    0.57180    1.000
    O114     O        0.15390    0.00420    0.56810    1.000
    C337     C        0.30710    0.82660    0.56900    1.000
    C338     C        0.23120    0.88760    0.61200    1.000
    C339     C        0.33490    0.79600    0.60490    1.000
    H225     H        0.32490    0.81360    0.54100    1.000
    C340     C        0.25720    0.85740    0.64830    1.000
    H226     H        0.19340    0.92010    0.61580    1.000
    N58      N        0.31040    0.81030    0.64440    1.000
    H227     H        0.37290    0.76360    0.60070    1.000
    H228     H        0.23790    0.86960    0.67630    1.000
    Ag58     Ag       0.35109    0.76642    0.71114    1.000
    O115     O        0.27610    0.82650    0.75340    1.000
    O116     O        0.42850    0.69500    0.68400    1.000
    C341     C        0.29110    0.83010    0.79350    1.000
    C342     C        0.47160    0.65910    0.70570    1.000
    O117     O        0.34050    0.79750    0.81610    1.000
    C343     C        0.24230    0.87920    0.81660    1.000
    O118     O        0.48100    0.65880    0.74620    1.000
    C344     C        0.51450    0.61300    0.67970    1.000
    Ag59     Ag       0.41254    0.72217    0.78938    1.000
    C345     C        0.18470    0.91390    0.79370    1.000
    C346     C        0.25660    0.88650    0.86070    1.000
    C347     C        0.57250    0.57130    0.70000    1.000
    C348     C        0.50510    0.61070    0.63490    1.000
    N59      N        0.45470    0.68330    0.85630    1.000
    H229     H        0.17660    0.90800    0.76340    1.000
    C349     C        0.13750    0.95790    0.81360    1.000
    C350     C        0.21120    0.93100    0.88230    1.000
    H230     H        0.29660    0.86180    0.87620    1.000
    C351     C        0.61440    0.53070    0.67430    1.000
    H231     H        0.58200    0.57160    0.73050    1.000
    C352     C        0.54670    0.56920    0.61070    1.000
    H232     H        0.46890    0.63860    0.62060    1.000
    Ag60     Ag       0.52225    0.55554    0.98556    1.000
    C353     C        0.51330    0.63990    0.85680    1.000
    C354     C        0.41690    0.69860    0.89600    1.000
    C355     C        0.15130    0.96580    0.85890    1.000
    H233     H        0.09720    0.98190    0.79750    1.000
    C356     C        0.22670    0.94150    0.92970    1.000
    C357     C        0.60420    0.52980    0.63060    1.000
    H234     H        0.65150    0.50250    0.68780    1.000
    C358     C        0.53060    0.56600    0.56290    1.000
    O119     O        0.50880    0.58410    0.05300    1.000
    C359     C        0.53780    0.61210    0.89500    1.000
    H235     H        0.53950    0.62740    0.83010    1.000
    C360     C        0.43920    0.66980    0.93290    1.000
    H236     H        0.37490    0.72950    0.89760    1.000
    H237     H        0.11920    0.99530    0.87350    1.000
    O120     O        0.18470    0.98390    0.94580    1.000
    H238     H        0.63600    0.50240    0.61370    1.000
    O121     O        0.47510    0.60230    0.54450    1.000
    O122     O        0.57100    0.52910    0.53990    1.000
    C361     C        0.46080    0.55050    0.07690    1.000
    N60      N        0.49650    0.62570    0.93230    1.000
    H239     H        0.58400    0.58340    0.89440    1.000
    H240     H        0.41320    0.68160    0.95990    1.000
    Ag61     Ag       0.24838    0.04887    0.99337    1.000
    Ag62     Ag       0.49942    0.56029    0.47117    1.000
    O123     O        0.42380    0.50690    0.06250    1.000
    C362     C        0.45280    0.56320    0.12480    1.000
    N61      N        0.51680    0.62720    0.41990    1.000
    C363     C        0.39980    0.52830    0.15150    1.000
    C364     C        0.49720    0.60840    0.14260    1.000
    C365     C        0.56500    0.67420    0.42510    1.000
    C366     C        0.49240    0.61340    0.37980    1.000
    C367     C        0.39410    0.53740    0.19510    1.000
    H241     H        0.36700    0.49760    0.13900    1.000
    C368     C        0.49210    0.61890    0.18710    1.000
    H242     H        0.53200    0.63300    0.12440    1.000
    C369     C        0.59200    0.70650    0.38970    1.000
    H243     H        0.58160    0.68590    0.45360    1.000
    C370     C        0.51580    0.64720    0.34460    1.000
    H244     H        0.45820    0.57970    0.37490    1.000
    C371     C        0.44060    0.58160    0.21390    1.000
    H245     H        0.35750    0.51290    0.21260    1.000
    C372     C        0.54230    0.66930    0.20610    1.000
    N62      N        0.56360    0.69320    0.34890    1.000
    H246     H        0.63070    0.73840    0.39420    1.000
    H247     H        0.49600    0.63630    0.31630    1.000
    H248     H        0.43840    0.58700    0.24450    1.000
    O124     O        0.53360    0.67630    0.24700    1.000
    O125     O        0.58420    0.70020    0.18010    1.000
    Ag63     Ag       0.61126    0.73891    0.28350    1.000
    Ag64     Ag       0.65824    0.77721    0.20043    1.000
    O126     O        0.68630    0.81140    0.30570    1.000
    O127     O        0.72680    0.84420    0.23940    1.000
    N63      N        0.70290    0.81610    0.13260    1.000
    C373     C        0.72530    0.84620    0.28000    1.000
    C374     C        0.67260    0.80070    0.09360    1.000
    C375     C        0.75700    0.86300    0.13450    1.000
    C376     C        0.77390    0.89620    0.30170    1.000
    C377     C        0.68850    0.83080    0.05680    1.000
    H249     H        0.63790    0.76690    0.09130    1.000
    C378     C        0.77410    0.89210    0.09700    1.000
    H250     H        0.78250    0.87540    0.16130    1.000
    C379     C        0.76450    0.90190    0.34620    1.000
    C380     C        0.82270    0.93330    0.27740    1.000
    H251     H        0.66180    0.81900    0.03000    1.000
    N64      N        0.74240    0.87750    0.05810    1.000
    H252     H        0.81120    0.92510    0.09900    1.000
    C381     C        0.81030    0.94720    0.36730    1.000
    H253     H        0.72790    0.87600    0.36240    1.000
    C382     C        0.87030    0.97790    0.29820    1.000
    H254     H        0.82500    0.92950    0.24670    1.000
    C383     C        0.86370    0.98390    0.34190    1.000
    C384     C        0.80070    0.95600    0.41560    1.000
    H255     H        0.90670    0.00360    0.28170    1.000
    O128     O        0.74550    0.92000    0.93700    1.000
    H256     H        0.89620    0.01380    0.35570    1.000
