# CIF file generated by openbabel 3.1.0, see https://openbabel.org
data_I
_chemical_name_common 'image0'
_cell_length_a 10.944
_cell_length_b 11.129
_cell_length_c 15.998
_cell_angle_alpha 75.57
_cell_angle_beta 82.96
_cell_angle_gamma 75.56
_space_group_name_H-M_alt 'P 1'
_space_group_name_Hall 'P 1'
loop_
    _symmetry_equiv_pos_as_xyz
    x,y,z
loop_
    _atom_site_label
    _atom_site_type_symbol
    _atom_site_fract_x
    _atom_site_fract_y
    _atom_site_fract_z
    _atom_site_occupancy
    O1       O        0.35960    0.28660    0.72700    1.000
    O2       O        0.57390    0.99600    0.24350    1.000
    O3       O        0.97950    0.07370    0.08450    1.000
    O4       O        0.14750    0.06970    0.99230    1.000
    C1       C        0.09350    0.07460    0.06520    1.000
    O5       O        0.22640    0.20200    0.82620    1.000
    O6       O        0.57140    0.02000    0.10370    1.000
    C2       C        0.51440    0.02330    0.17480    1.000
    C3       C        0.37400    0.06250    0.18310    1.000
    C4       C        0.30260    0.05980    0.11920    1.000
    H1       H        0.34080    0.04260    0.06700    1.000
    C5       C        0.27720    0.29090    0.78740    1.000
    C6       C        0.23510    0.41410    0.81650    1.000
    C7       C        0.27770    0.52190    0.77240    1.000
    H2       H        0.33270    0.51840    0.72340    1.000
    O7       O        0.61080    0.11740    0.54180    1.000
    O8       O        0.62020    0.18320    0.65820    1.000
    C8       C        0.67070    0.15710    0.58960    1.000
    C9       C        0.80410    0.16290    0.56370    1.000
    C10      C        0.85070    0.16390    0.47980    1.000
    H3       H        0.79710    0.16690    0.43810    1.000
    Eu1      Eu       0.41255    0.16000    0.62672    1.000
    Eu2      Eu       0.20768    0.99481    0.86643    1.000
    O9       O        0.06830    0.09520    0.74930    1.000
    O10      O        0.24480    0.84720    0.78430    1.000
    N1       N        0.01980    0.15440    0.36980    1.000
    O11      O        0.35790    0.74600    0.68990    1.000
    C11      C        0.28530    0.74760    0.75530    1.000
    N2       N        0.13640    0.13900    0.35580    1.000
    C12      C        0.15630    0.63780    0.87340    1.000
    H4       H        0.13020    0.71230    0.89360    1.000
    C13      C        0.24040    0.63200    0.79980    1.000
    C14      C        0.01030    0.15530    0.60380    1.000
    O12      O        0.20340    0.16610    0.64680    1.000
    C15      C        0.18280    0.12190    0.27130    1.000
    N3       N        0.02680    0.54540    0.98550    1.000
    C16      C        0.11350    0.11070    0.20840    1.000
    H5       H        0.02620    0.12220    0.21760    1.000
    C17      C        0.05960    0.15800    0.52110    1.000
    H6       H        0.14450    0.15830    0.50640    1.000
    C18      C        0.10020    0.13890    0.67270    1.000
    C19      C        0.88250    0.15940    0.62480    1.000
    H7       H        0.84990    0.15970    0.68130    1.000
    C20      C        0.15370    0.41680    0.88790    1.000
    H8       H        0.12590    0.34440    0.91770    1.000
    C21      C        0.97760    0.16030    0.45760    1.000
    C22      C        0.17040    0.08360    0.13440    1.000
    C23      C        0.31450    0.09600    0.25990    1.000
    H9       H        0.36250    0.10070    0.30260    1.000
    C24      C        0.11350    0.52930    0.91510    1.000
    O13      O        0.64040    0.71340    0.27300    1.000
    O14      O        0.42610    0.00400    0.75650    1.000
    O15      O        0.02050    0.92630    0.91550    1.000
    O16      O        0.85250    0.93030    0.00770    1.000
    C25      C        0.90650    0.92540    0.93480    1.000
    O17      O        0.77360    0.79800    0.17380    1.000
    O18      O        0.42860    0.98000    0.89630    1.000
    C26      C        0.48560    0.97670    0.82520    1.000
    C27      C        0.62600    0.93750    0.81690    1.000
    C28      C        0.69740    0.94020    0.88080    1.000
    H10      H        0.65920    0.95740    0.93300    1.000
    C29      C        0.72280    0.70910    0.21260    1.000
    C30      C        0.76490    0.58590    0.18350    1.000
    C31      C        0.72230    0.47810    0.22760    1.000
    H11      H        0.66730    0.48160    0.27660    1.000
    O19      O        0.38920    0.88260    0.45820    1.000
    O20      O        0.37980    0.81680    0.34180    1.000
    C32      C        0.32930    0.84290    0.41040    1.000
    C33      C        0.19590    0.83710    0.43630    1.000
    C34      C        0.14930    0.83610    0.52020    1.000
    H12      H        0.20290    0.83310    0.56190    1.000
    Eu3      Eu       0.58745    0.84000    0.37328    1.000
    Eu4      Eu       0.79232    0.00519    0.13357    1.000
    O21      O        0.93170    0.90480    0.25070    1.000
    O22      O        0.75520    0.15280    0.21570    1.000
    N4       N        0.98020    0.84560    0.63020    1.000
    O23      O        0.64210    0.25400    0.31010    1.000
    C35      C        0.71470    0.25240    0.24470    1.000
    N5       N        0.86360    0.86100    0.64420    1.000
    C36      C        0.84370    0.36220    0.12660    1.000
    H13      H        0.86980    0.28770    0.10640    1.000
    C37      C        0.75960    0.36800    0.20020    1.000
    C38      C        0.98970    0.84470    0.39620    1.000
    O24      O        0.79660    0.83390    0.35320    1.000
    C39      C        0.81720    0.87810    0.72870    1.000
    N6       N        0.97320    0.45460    0.01450    1.000
    C40      C        0.88650    0.88930    0.79160    1.000
    H14      H        0.97380    0.87780    0.78240    1.000
    C41      C        0.94040    0.84200    0.47890    1.000
    H15      H        0.85550    0.84170    0.49360    1.000
    C42      C        0.89980    0.86110    0.32730    1.000
    C43      C        0.11750    0.84060    0.37520    1.000
    H16      H        0.15010    0.84030    0.31870    1.000
    C44      C        0.84630    0.58320    0.11210    1.000
    H17      H        0.87410    0.65560    0.08230    1.000
    C45      C        0.02240    0.83970    0.54240    1.000
    C46      C        0.82960    0.91640    0.86560    1.000
    C47      C        0.68550    0.90400    0.74010    1.000
    H18      H        0.63750    0.89930    0.69740    1.000
    C48      C        0.88650    0.47070    0.08490    1.000
