# CIF file generated by openbabel 3.1.0, see https://openbabel.org
data_I
_chemical_name_common 'image0'
_cell_length_a 20.6013
_cell_length_b 20.6013
_cell_length_c 17.8183
_cell_angle_alpha 90
_cell_angle_beta 90
_cell_angle_gamma 90
_space_group_name_H-M_alt 'P 1'
_space_group_name_Hall 'P 1'
loop_
    _symmetry_equiv_pos_as_xyz
    x,y,z
loop_
    _atom_site_label
    _atom_site_type_symbol
    _atom_site_fract_x
    _atom_site_fract_y
    _atom_site_fract_z
    _atom_site_occupancy
    Zn1      Zn       0.25839    0.11894    0.46489    1.000
    O1       O        0.24188    0.15940    0.30093    1.000
    O2       O        0.19325    0.17236    0.41082    1.000
    O3       O        0.12685    0.23570    0.07016    1.000
    O4       O        0.05610    0.31370    0.08361    1.000
    O5       O        0.96597    0.25680    0.41430    1.000
    O6       O        0.94668    0.33768    0.33099    1.000
    C1       C        0.19670    0.17950    0.34230    1.000
    C2       C        0.14090    0.21520    0.30370    1.000
    C3       C        0.14380    0.22710    0.22900    1.000
    H1       H        0.17920    0.21270    0.20120    1.000
    C4       C        0.09320    0.26150    0.19350    1.000
    C5       C        0.04041    0.28464    0.23549    1.000
    H2       H        0.00740    0.30850    0.21300    1.000
    C6       C        0.03898    0.27050    0.31280    1.000
    C7       C        0.08768    0.23590    0.34730    1.000
    H3       H        0.08550    0.22640    0.39820    1.000
    C8       C        0.09180    0.27200    0.10990    1.000
    C9       C        0.97840    0.29150    0.35630    1.000
    Zn2      Zn       0.75839    0.61894    0.96489    1.000
    O7       O        0.74188    0.65940    0.80093    1.000
    O8       O        0.69325    0.67236    0.91082    1.000
    O9       O        0.62685    0.73570    0.57016    1.000
    O10      O        0.55610    0.81370    0.58361    1.000
    O11      O        0.46597    0.75680    0.91430    1.000
    O12      O        0.44668    0.83768    0.83099    1.000
    C10      C        0.69670    0.67950    0.84230    1.000
    C11      C        0.64090    0.71520    0.80370    1.000
    C12      C        0.64380    0.72710    0.72900    1.000
    H4       H        0.67920    0.71270    0.70120    1.000
    C13      C        0.59320    0.76150    0.69350    1.000
    C14      C        0.54041    0.78464    0.73549    1.000
    H5       H        0.50740    0.80850    0.71300    1.000
    C15      C        0.53898    0.77050    0.81280    1.000
    C16      C        0.58768    0.73590    0.84730    1.000
    H6       H        0.58550    0.72640    0.89820    1.000
    C17      C        0.59180    0.77200    0.60990    1.000
    C18      C        0.47840    0.79150    0.85630    1.000
    Zn3      Zn       0.74161    0.88106    0.46489    1.000
    O13      O        0.75812    0.84060    0.30093    1.000
    O14      O        0.80675    0.82764    0.41082    1.000
    O15      O        0.87315    0.76430    0.07016    1.000
    O16      O        0.94390    0.68630    0.08361    1.000
    O17      O        0.03403    0.74320    0.41430    1.000
    O18      O        0.05332    0.66232    0.33099    1.000
    C19      C        0.80330    0.82050    0.34230    1.000
    C20      C        0.85910    0.78480    0.30370    1.000
    C21      C        0.85620    0.77290    0.22900    1.000
    H7       H        0.82080    0.78730    0.20120    1.000
    C22      C        0.90680    0.73850    0.19350    1.000
    C23      C        0.95959    0.71536    0.23549    1.000
    H8       H        0.99260    0.69150    0.21300    1.000
    C24      C        0.96102    0.72950    0.31280    1.000
    C25      C        0.91232    0.76410    0.34730    1.000
    H9       H        0.91450    0.77360    0.39820    1.000
    C26      C        0.90820    0.72800    0.10990    1.000
    C27      C        0.02160    0.70850    0.35630    1.000
    Zn4      Zn       0.24161    0.38106    0.96489    1.000
    O19      O        0.25812    0.34060    0.80093    1.000
    O20      O        0.30675    0.32764    0.91082    1.000
    O21      O        0.37315    0.26430    0.57016    1.000
    O22      O        0.44390    0.18630    0.58361    1.000
    O23      O        0.53403    0.24320    0.91430    1.000
    O24      O        0.55332    0.16232    0.83099    1.000
    C28      C        0.30330    0.32050    0.84230    1.000
    C29      C        0.35910    0.28480    0.80370    1.000
    C30      C        0.35620    0.27290    0.72900    1.000
    H10      H        0.32080    0.28730    0.70120    1.000
    C31      C        0.40680    0.23850    0.69350    1.000
    C32      C        0.45959    0.21536    0.73549    1.000
    H11      H        0.49260    0.19150    0.71300    1.000
    C33      C        0.46102    0.22950    0.81280    1.000
    C34      C        0.41232    0.26410    0.84730    1.000
    H12      H        0.41450    0.27360    0.89820    1.000
    C35      C        0.40820    0.22800    0.60990    1.000
    C36      C        0.52160    0.20850    0.85630    1.000
    Zn5      Zn       0.88106    0.25839    0.46489    1.000
    O25      O        0.84060    0.24188    0.30093    1.000
    O26      O        0.82764    0.19325    0.41082    1.000
    O27      O        0.76430    0.12685    0.07016    1.000
    O28      O        0.68630    0.05610    0.08361    1.000
    O29      O        0.74320    0.96597    0.41430    1.000
    O30      O        0.66232    0.94668    0.33099    1.000
    C37      C        0.82050    0.19670    0.34230    1.000
    C38      C        0.78480    0.14090    0.30370    1.000
    C39      C        0.77290    0.14380    0.22900    1.000
    H13      H        0.78730    0.17920    0.20120    1.000
    C40      C        0.73850    0.09320    0.19350    1.000
    C41      C        0.71536    0.04041    0.23549    1.000
    H14      H        0.69150    0.00740    0.21300    1.000
    C42      C        0.72950    0.03898    0.31280    1.000
    C43      C        0.76410    0.08768    0.34730    1.000
    H15      H        0.77360    0.08550    0.39820    1.000
    C44      C        0.72800    0.09180    0.10990    1.000
    C45      C        0.70850    0.97840    0.35630    1.000
    Zn6      Zn       0.38106    0.75839    0.96489    1.000
    O31      O        0.34060    0.74188    0.80093    1.000
    O32      O        0.32764    0.69325    0.91082    1.000
    O33      O        0.26430    0.62685    0.57016    1.000
    O34      O        0.18630    0.55610    0.58361    1.000
    O35      O        0.24320    0.46597    0.91430    1.000
    O36      O        0.16232    0.44668    0.83099    1.000
    C46      C        0.32050    0.69670    0.84230    1.000
    C47      C        0.28480    0.64090    0.80370    1.000
    C48      C        0.27290    0.64380    0.72900    1.000
    H16      H        0.28730    0.67920    0.70120    1.000
    C49      C        0.23850    0.59320    0.69350    1.000
    C50      C        0.21536    0.54041    0.73549    1.000
    H17      H        0.19150    0.50740    0.71300    1.000
    C51      C        0.22950    0.53898    0.81280    1.000
    C52      C        0.26410    0.58768    0.84730    1.000
    H18      H        0.27360    0.58550    0.89820    1.000
    C53      C        0.22800    0.59180    0.60990    1.000
    C54      C        0.20850    0.47840    0.85630    1.000
    Zn7      Zn       0.11894    0.74161    0.46489    1.000
    O37      O        0.15940    0.75812    0.30093    1.000
    O38      O        0.17236    0.80675    0.41082    1.000
    O39      O        0.23570    0.87315    0.07016    1.000
    O40      O        0.31370    0.94390    0.08361    1.000
    O41      O        0.25680    0.03403    0.41430    1.000
    O42      O        0.33768    0.05332    0.33099    1.000
    C55      C        0.17950    0.80330    0.34230    1.000
    C56      C        0.21520    0.85910    0.30370    1.000
    C57      C        0.22710    0.85620    0.22900    1.000
    H19      H        0.21270    0.82080    0.20120    1.000
    C58      C        0.26150    0.90680    0.19350    1.000
    C59      C        0.28464    0.95959    0.23549    1.000
    H20      H        0.30850    0.99260    0.21300    1.000
    C60      C        0.27050    0.96102    0.31280    1.000
    C61      C        0.23590    0.91232    0.34730    1.000
    H21      H        0.22640    0.91450    0.39820    1.000
    C62      C        0.27200    0.90820    0.10990    1.000
    C63      C        0.29150    0.02160    0.35630    1.000
    Zn8      Zn       0.61894    0.24161    0.96489    1.000
    O43      O        0.65940    0.25812    0.80093    1.000
    O44      O        0.67236    0.30675    0.91082    1.000
    O45      O        0.73570    0.37315    0.57016    1.000
    O46      O        0.81370    0.44390    0.58361    1.000
    O47      O        0.75680    0.53403    0.91430    1.000
    O48      O        0.83768    0.55332    0.83099    1.000
    C64      C        0.67950    0.30330    0.84230    1.000
    C65      C        0.71520    0.35910    0.80370    1.000
    C66      C        0.72710    0.35620    0.72900    1.000
    H22      H        0.71270    0.32080    0.70120    1.000
    C67      C        0.76150    0.40680    0.69350    1.000
    C68      C        0.78464    0.45959    0.73549    1.000
    H23      H        0.80850    0.49260    0.71300    1.000
    C69      C        0.77050    0.46102    0.81280    1.000
    C70      C        0.73590    0.41232    0.84730    1.000
    H24      H        0.72640    0.41450    0.89820    1.000
    C71      C        0.77200    0.40820    0.60990    1.000
    C72      C        0.79150    0.52160    0.85630    1.000
    Zn9      Zn       0.25839    0.88106    0.96489    1.000
    O49      O        0.24188    0.84060    0.80093    1.000
    O50      O        0.19325    0.82764    0.91082    1.000
    O51      O        0.12685    0.76430    0.57016    1.000
    O52      O        0.05610    0.68630    0.58361    1.000
    O53      O        0.96597    0.74320    0.91430    1.000
    O54      O        0.94668    0.66232    0.83099    1.000
    C73      C        0.19670    0.82050    0.84230    1.000
    C74      C        0.14090    0.78480    0.80370    1.000
    C75      C        0.14380    0.77290    0.72900    1.000
    H25      H        0.17920    0.78730    0.70120    1.000
    C76      C        0.09320    0.73850    0.69350    1.000
    C77      C        0.04041    0.71536    0.73549    1.000
    H26      H        0.00740    0.69150    0.71300    1.000
    C78      C        0.03898    0.72950    0.81280    1.000
    C79      C        0.08768    0.76410    0.84730    1.000
    H27      H        0.08550    0.77360    0.89820    1.000
    C80      C        0.09180    0.72800    0.60990    1.000
    C81      C        0.97840    0.70850    0.85630    1.000
    Zn10     Zn       0.75839    0.38106    0.46489    1.000
    O55      O        0.74188    0.34060    0.30093    1.000
    O56      O        0.69325    0.32764    0.41082    1.000
    O57      O        0.62685    0.26430    0.07016    1.000
    O58      O        0.55610    0.18630    0.08361    1.000
    O59      O        0.46597    0.24320    0.41430    1.000
    O60      O        0.44668    0.16232    0.33099    1.000
    C82      C        0.69670    0.32050    0.34230    1.000
    C83      C        0.64090    0.28480    0.30370    1.000
    C84      C        0.64380    0.27290    0.22900    1.000
    H28      H        0.67920    0.28730    0.20120    1.000
    C85      C        0.59320    0.23850    0.19350    1.000
    C86      C        0.54041    0.21536    0.23549    1.000
    H29      H        0.50740    0.19150    0.21300    1.000
    C87      C        0.53898    0.22950    0.31280    1.000
    C88      C        0.58768    0.26410    0.34730    1.000
    H30      H        0.58550    0.27360    0.39820    1.000
    C89      C        0.59180    0.22800    0.10990    1.000
    C90      C        0.47840    0.20850    0.35630    1.000
    Zn11     Zn       0.74161    0.11894    0.96489    1.000
    O61      O        0.75812    0.15940    0.80093    1.000
    O62      O        0.80675    0.17236    0.91082    1.000
    O63      O        0.87315    0.23570    0.57016    1.000
    O64      O        0.94390    0.31370    0.58361    1.000
    O65      O        0.03403    0.25680    0.91430    1.000
    O66      O        0.05332    0.33768    0.83099    1.000
    C91      C        0.80330    0.17950    0.84230    1.000
    C92      C        0.85910    0.21520    0.80370    1.000
    C93      C        0.85620    0.22710    0.72900    1.000
    H31      H        0.82080    0.21270    0.70120    1.000
    C94      C        0.90680    0.26150    0.69350    1.000
    C95      C        0.95959    0.28464    0.73549    1.000
    H32      H        0.99260    0.30850    0.71300    1.000
    C96      C        0.96102    0.27050    0.81280    1.000
    C97      C        0.91232    0.23590    0.84730    1.000
    H33      H        0.91450    0.22640    0.89820    1.000
    C98      C        0.90820    0.27200    0.60990    1.000
    C99      C        0.02160    0.29150    0.85630    1.000
    Zn12     Zn       0.24161    0.61894    0.46489    1.000
    O67      O        0.25812    0.65940    0.30093    1.000
    O68      O        0.30675    0.67236    0.41082    1.000
    O69      O        0.37315    0.73570    0.07016    1.000
    O70      O        0.44390    0.81370    0.08361    1.000
    O71      O        0.53403    0.75680    0.41430    1.000
    O72      O        0.55332    0.83768    0.33099    1.000
    C100     C        0.30330    0.67950    0.34230    1.000
    C101     C        0.35910    0.71520    0.30370    1.000
    C102     C        0.35620    0.72710    0.22900    1.000
    H34      H        0.32080    0.71270    0.20120    1.000
    C103     C        0.40680    0.76150    0.19350    1.000
    C104     C        0.45959    0.78464    0.23549    1.000
    H35      H        0.49260    0.80850    0.21300    1.000
    C105     C        0.46102    0.77050    0.31280    1.000
    C106     C        0.41232    0.73590    0.34730    1.000
    H36      H        0.41450    0.72640    0.39820    1.000
    C107     C        0.40820    0.77200    0.10990    1.000
    C108     C        0.52160    0.79150    0.35630    1.000
    Zn13     Zn       0.88106    0.74161    0.96489    1.000
    O73      O        0.84060    0.75812    0.80093    1.000
    O74      O        0.82764    0.80675    0.91082    1.000
    O75      O        0.76430    0.87315    0.57016    1.000
    O76      O        0.68630    0.94390    0.58361    1.000
    O77      O        0.74320    0.03403    0.91430    1.000
    O78      O        0.66232    0.05332    0.83099    1.000
    C109     C        0.82050    0.80330    0.84230    1.000
    C110     C        0.78480    0.85910    0.80370    1.000
    C111     C        0.77290    0.85620    0.72900    1.000
    H37      H        0.78730    0.82080    0.70120    1.000
    C112     C        0.73850    0.90680    0.69350    1.000
    C113     C        0.71536    0.95959    0.73549    1.000
    H38      H        0.69150    0.99260    0.71300    1.000
    C114     C        0.72950    0.96102    0.81280    1.000
    C115     C        0.76410    0.91232    0.84730    1.000
    H39      H        0.77360    0.91450    0.89820    1.000
    C116     C        0.72800    0.90820    0.60990    1.000
    C117     C        0.70850    0.02160    0.85630    1.000
    Zn14     Zn       0.38106    0.24161    0.46489    1.000
    O79      O        0.34060    0.25812    0.30093    1.000
    O80      O        0.32764    0.30675    0.41082    1.000
    O81      O        0.26430    0.37315    0.07016    1.000
    O82      O        0.18630    0.44390    0.08361    1.000
    O83      O        0.24320    0.53403    0.41430    1.000
    O84      O        0.16232    0.55332    0.33099    1.000
    C118     C        0.32050    0.30330    0.34230    1.000
    C119     C        0.28480    0.35910    0.30370    1.000
    C120     C        0.27290    0.35620    0.22900    1.000
    H40      H        0.28730    0.32080    0.20120    1.000
    C121     C        0.23850    0.40680    0.19350    1.000
    C122     C        0.21536    0.45959    0.23549    1.000
    H41      H        0.19150    0.49260    0.21300    1.000
    C123     C        0.22950    0.46102    0.31280    1.000
    C124     C        0.26410    0.41232    0.34730    1.000
    H42      H        0.27360    0.41450    0.39820    1.000
    C125     C        0.22800    0.40820    0.10990    1.000
    C126     C        0.20850    0.52160    0.35630    1.000
    Zn15     Zn       0.11894    0.25839    0.96489    1.000
    O85      O        0.15940    0.24188    0.80093    1.000
    O86      O        0.17236    0.19325    0.91082    1.000
    O87      O        0.23570    0.12685    0.57016    1.000
    O88      O        0.31370    0.05610    0.58361    1.000
    O89      O        0.25680    0.96597    0.91430    1.000
    O90      O        0.33768    0.94668    0.83099    1.000
    C127     C        0.17950    0.19670    0.84230    1.000
    C128     C        0.21520    0.14090    0.80370    1.000
    C129     C        0.22710    0.14380    0.72900    1.000
    H43      H        0.21270    0.17920    0.70120    1.000
    C130     C        0.26150    0.09320    0.69350    1.000
    C131     C        0.28464    0.04041    0.73549    1.000
    H44      H        0.30850    0.00740    0.71300    1.000
    C132     C        0.27050    0.03898    0.81280    1.000
    C133     C        0.23590    0.08768    0.84730    1.000
    H45      H        0.22640    0.08550    0.89820    1.000
    C134     C        0.27200    0.09180    0.60990    1.000
    C135     C        0.29150    0.97840    0.85630    1.000
    Zn16     Zn       0.61894    0.75839    0.46489    1.000
    O91      O        0.65940    0.74188    0.30093    1.000
    O92      O        0.67236    0.69325    0.41082    1.000
    O93      O        0.73570    0.62685    0.07016    1.000
    O94      O        0.81370    0.55610    0.08361    1.000
    O95      O        0.75680    0.46597    0.41430    1.000
    O96      O        0.83768    0.44668    0.33099    1.000
    C136     C        0.67950    0.69670    0.34230    1.000
    C137     C        0.71520    0.64090    0.30370    1.000
    C138     C        0.72710    0.64380    0.22900    1.000
    H46      H        0.71270    0.67920    0.20120    1.000
    C139     C        0.76150    0.59320    0.19350    1.000
    C140     C        0.78464    0.54041    0.23549    1.000
    H47      H        0.80850    0.50740    0.21300    1.000
    C141     C        0.77050    0.53898    0.31280    1.000
    C142     C        0.73590    0.58768    0.34730    1.000
    H48      H        0.72640    0.58550    0.39820    1.000
    C143     C        0.77200    0.59180    0.10990    1.000
    C144     C        0.79150    0.47840    0.35630    1.000
    Cd1      Cd       0.34589    0.15411    0.31584    1.000
    O97      O        0.34011    0.15989    0.43730    1.000
    Cd2      Cd       0.65411    0.84589    0.31584    1.000
    O98      O        0.65989    0.84011    0.43730    1.000
    Cd3      Cd       0.15411    0.34589    0.81584    1.000
    O99      O        0.15989    0.34011    0.93730    1.000
    Cd4      Cd       0.84589    0.34589    0.31584    1.000
    O100     O        0.84011    0.34011    0.43730    1.000
    Cd5      Cd       0.15411    0.65411    0.31584    1.000
    O101     O        0.15989    0.65989    0.43730    1.000
    Cd6      Cd       0.34589    0.84589    0.81584    1.000
    O102     O        0.34011    0.84011    0.93730    1.000
    Cd7      Cd       0.65411    0.15411    0.81584    1.000
    O103     O        0.65989    0.15989    0.93730    1.000
    Cd8      Cd       0.84589    0.65411    0.81584    1.000
    O104     O        0.84011    0.65989    0.93730    1.000
