# CIF file generated by openbabel 3.1.0, see https://openbabel.org
data_I
_chemical_name_common 'image0'
_cell_length_a 9.9524
_cell_length_b 12.67
_cell_length_c 16.2137
_cell_angle_alpha 90
_cell_angle_beta 96.18
_cell_angle_gamma 90
_space_group_name_H-M_alt 'P 1'
_space_group_name_Hall 'P 1'
loop_
    _symmetry_equiv_pos_as_xyz
    x,y,z
loop_
    _atom_site_label
    _atom_site_type_symbol
    _atom_site_fract_x
    _atom_site_fract_y
    _atom_site_fract_z
    _atom_site_occupancy
    Sm1      Sm       0.30634    0.04382    0.99503    1.000
    O1       O        0.41300    0.04450    0.13300    1.000
    O2       O        0.63600    0.02210    0.13420    1.000
    O3       O        0.73550    0.35820    0.47750    1.000
    O4       O        0.51630    0.37690    0.47320    1.000
    O5       O        0.09530    0.99990    0.91580    1.000
    O6       O        0.87700    0.96220    0.92100    1.000
    C1       C        0.55470    0.10640    0.25000    1.000
    C2       C        0.45840    0.17690    0.26580    1.000
    H1       H        0.37810    0.17990    0.23080    1.000
    C3       C        0.47780    0.24640    0.33500    1.000
    H2       H        0.41050    0.29400    0.34530    1.000
    C4       C        0.59650    0.24260    0.38630    1.000
    C5       C        0.69700    0.16580    0.37450    1.000
    C6       C        0.82030    0.15520    0.42890    1.000
    H3       H        0.83800    0.20220    0.47280    1.000
    C7       C        0.91060    0.07880    0.41770    1.000
    H4       H        0.99120    0.07510    0.45240    1.000
    C8       C        0.88290    0.00420    0.35320    1.000
    H5       H        0.94280    0.94890    0.34760    1.000
    C9       C        0.76900    0.01300    0.29930    1.000
    H6       H        0.75320    0.96440    0.25640    1.000
    C10      C        0.67460    0.09410    0.30690    1.000
    C11      C        0.53380    0.05140    0.16670    1.000
    C12      C        0.61750    0.32870    0.45200    1.000
    C13      C        0.99290    0.98960    0.95260    1.000
    Br1      Br       0.22060    0.25669    0.98420    1.000
    Sm2      Sm       0.69366    0.54382    0.50497    1.000
    O7       O        0.58700    0.54450    0.36700    1.000
    O8       O        0.36400    0.52210    0.36580    1.000
    O9       O        0.26450    0.85820    0.02250    1.000
    O10      O        0.48370    0.87690    0.02680    1.000
    O11      O        0.90470    0.49990    0.58420    1.000
    O12      O        0.12300    0.46220    0.57900    1.000
    C14      C        0.44530    0.60640    0.25000    1.000
    C15      C        0.54160    0.67690    0.23420    1.000
    H7       H        0.62190    0.67990    0.26920    1.000
    C16      C        0.52220    0.74640    0.16500    1.000
    H8       H        0.58950    0.79400    0.15470    1.000
    C17      C        0.40350    0.74260    0.11370    1.000
    C18      C        0.30300    0.66580    0.12550    1.000
    C19      C        0.17970    0.65520    0.07110    1.000
    H9       H        0.16200    0.70220    0.02720    1.000
    C20      C        0.08940    0.57880    0.08230    1.000
    H10      H        0.00880    0.57510    0.04760    1.000
    C21      C        0.11710    0.50420    0.14680    1.000
    H11      H        0.05720    0.44890    0.15240    1.000
    C22      C        0.23100    0.51300    0.20070    1.000
    H12      H        0.24680    0.46440    0.24360    1.000
    C23      C        0.32540    0.59410    0.19310    1.000
    C24      C        0.46620    0.55140    0.33330    1.000
    C25      C        0.38250    0.82870    0.04800    1.000
    C26      C        0.00710    0.48960    0.54740    1.000
    Br2      Br       0.77940    0.75669    0.51580    1.000
    Sm3      Sm       0.69366    0.95618    0.00497    1.000
    O13      O        0.58700    0.95550    0.86700    1.000
    O14      O        0.36400    0.97790    0.86580    1.000
    O15      O        0.26450    0.64180    0.52250    1.000
    O16      O        0.48370    0.62310    0.52680    1.000
    O17      O        0.90470    0.00010    0.08420    1.000
    O18      O        0.12300    0.03780    0.07900    1.000
    C27      C        0.44530    0.89360    0.75000    1.000
    C28      C        0.54160    0.82310    0.73420    1.000
    H13      H        0.62190    0.82010    0.76920    1.000
    C29      C        0.52220    0.75360    0.66500    1.000
    H14      H        0.58950    0.70600    0.65470    1.000
    C30      C        0.40350    0.75740    0.61370    1.000
    C31      C        0.30300    0.83420    0.62550    1.000
    C32      C        0.17970    0.84480    0.57110    1.000
    H15      H        0.16200    0.79780    0.52720    1.000
    C33      C        0.08940    0.92120    0.58230    1.000
    H16      H        0.00880    0.92490    0.54760    1.000
    C34      C        0.11710    0.99580    0.64680    1.000
    H17      H        0.05720    0.05110    0.65240    1.000
    C35      C        0.23100    0.98700    0.70070    1.000
    H18      H        0.24680    0.03560    0.74360    1.000
    C36      C        0.32540    0.90590    0.69310    1.000
    C37      C        0.46620    0.94860    0.83330    1.000
    C38      C        0.38250    0.67130    0.54800    1.000
    C39      C        0.00710    0.01040    0.04740    1.000
    Br3      Br       0.77940    0.74331    0.01580    1.000
    Sm4      Sm       0.30634    0.45618    0.49503    1.000
    O19      O        0.41300    0.45550    0.63300    1.000
    O20      O        0.63600    0.47790    0.63420    1.000
    O21      O        0.73550    0.14180    0.97750    1.000
    O22      O        0.51630    0.12310    0.97320    1.000
    O23      O        0.09530    0.50010    0.41580    1.000
    O24      O        0.87700    0.53780    0.42100    1.000
    C40      C        0.55470    0.39360    0.75000    1.000
    C41      C        0.45840    0.32310    0.76580    1.000
    H19      H        0.37810    0.32010    0.73080    1.000
    C42      C        0.47780    0.25360    0.83500    1.000
    H20      H        0.41050    0.20600    0.84530    1.000
    C43      C        0.59650    0.25740    0.88630    1.000
    C44      C        0.69700    0.33420    0.87450    1.000
    C45      C        0.82030    0.34480    0.92890    1.000
    H21      H        0.83800    0.29780    0.97280    1.000
    C46      C        0.91060    0.42120    0.91770    1.000
    H22      H        0.99120    0.42490    0.95240    1.000
    C47      C        0.88290    0.49580    0.85320    1.000
    H23      H        0.94280    0.55110    0.84760    1.000
    C48      C        0.76900    0.48700    0.79930    1.000
    H24      H        0.75320    0.53560    0.75640    1.000
    C49      C        0.67460    0.40590    0.80690    1.000
    C50      C        0.53380    0.44860    0.66670    1.000
    C51      C        0.61750    0.17130    0.95200    1.000
    C52      C        0.99290    0.51040    0.45260    1.000
    Br4      Br       0.22060    0.24331    0.48420    1.000
