# CIF file generated by openbabel 3.1.0, see https://openbabel.org
data_I
_chemical_name_common 'image0'
_cell_length_a 8.8754
_cell_length_b 16.667
_cell_length_c 13.864
_cell_angle_alpha 90
_cell_angle_beta 90
_cell_angle_gamma 90
_space_group_name_H-M_alt 'P 1'
_space_group_name_Hall 'P 1'
loop_
    _symmetry_equiv_pos_as_xyz
    x,y,z
loop_
    _atom_site_label
    _atom_site_type_symbol
    _atom_site_fract_x
    _atom_site_fract_y
    _atom_site_fract_z
    _atom_site_occupancy
    Zn1      Zn       0.44689    0.92309    0.10618    1.000
    P1       P        0.50544    0.10828    0.11139    1.000
    P2       P        0.74170    0.38158    0.22009    1.000
    O1       O        0.40320    0.03636    0.10220    1.000
    O2       O        0.81160    0.35976    0.31549    1.000
    O3       O        0.58810    0.12842    0.01851    1.000
    O4       O        0.84790    0.40900    0.14380    1.000
    O5       O        0.41770    0.18083    0.14900    1.000
    O6       O        0.64590    0.31410    0.18073    1.000
    H1       H        0.61500    0.09010    0.17400    1.000
    H2       H        0.64700    0.44800    0.23900    1.000
    Zn2      Zn       0.05311    0.57691    0.60618    1.000
    P3       P        0.99456    0.39172    0.61139    1.000
    P4       P        0.75830    0.11842    0.72009    1.000
    O7       O        0.09680    0.46364    0.60220    1.000
    O8       O        0.68840    0.14024    0.81549    1.000
    O9       O        0.91190    0.37158    0.51851    1.000
    O10      O        0.65210    0.09100    0.64380    1.000
    O11      O        0.08230    0.31917    0.64900    1.000
    O12      O        0.85410    0.18590    0.68073    1.000
    H3       H        0.88500    0.40990    0.67400    1.000
    H4       H        0.85300    0.05200    0.73900    1.000
    Zn3      Zn       0.55311    0.92309    0.39382    1.000
    P5       P        0.49456    0.10828    0.38861    1.000
    P6       P        0.25830    0.38158    0.27991    1.000
    O13      O        0.59680    0.03636    0.39780    1.000
    O14      O        0.18840    0.35976    0.18451    1.000
    O15      O        0.41190    0.12842    0.48149    1.000
    O16      O        0.15210    0.40900    0.35620    1.000
    O17      O        0.58230    0.18083    0.35100    1.000
    O18      O        0.35410    0.31410    0.31927    1.000
    H5       H        0.38500    0.09010    0.32600    1.000
    H6       H        0.35300    0.44800    0.26100    1.000
    Zn4      Zn       0.94689    0.57691    0.89382    1.000
    P7       P        0.00544    0.39172    0.88861    1.000
    P8       P        0.24170    0.11842    0.77991    1.000
    O19      O        0.90320    0.46364    0.89780    1.000
    O20      O        0.31160    0.14024    0.68451    1.000
    O21      O        0.08810    0.37158    0.98149    1.000
    O22      O        0.34790    0.09100    0.85620    1.000
    O23      O        0.91770    0.31917    0.85100    1.000
    O24      O        0.14590    0.18590    0.81927    1.000
    H7       H        0.11500    0.40990    0.82600    1.000
    H8       H        0.14700    0.05200    0.76100    1.000
    Zn5      Zn       0.55311    0.07691    0.89382    1.000
    P9       P        0.49456    0.89172    0.88861    1.000
    P10      P        0.25830    0.61842    0.77991    1.000
    O25      O        0.59680    0.96364    0.89780    1.000
    O26      O        0.18840    0.64024    0.68451    1.000
    O27      O        0.41190    0.87158    0.98149    1.000
    O28      O        0.15210    0.59100    0.85620    1.000
    O29      O        0.58230    0.81917    0.85100    1.000
    O30      O        0.35410    0.68590    0.81927    1.000
    H9       H        0.38500    0.90990    0.82600    1.000
    H10      H        0.35300    0.55200    0.76100    1.000
    Zn6      Zn       0.94689    0.42309    0.39382    1.000
    P11      P        0.00544    0.60828    0.38861    1.000
    P12      P        0.24170    0.88158    0.27991    1.000
    O31      O        0.90320    0.53636    0.39780    1.000
    O32      O        0.31160    0.85976    0.18451    1.000
    O33      O        0.08810    0.62842    0.48149    1.000
    O34      O        0.34790    0.90900    0.35620    1.000
    O35      O        0.91770    0.68083    0.35100    1.000
    O36      O        0.14590    0.81410    0.31927    1.000
    H11      H        0.11500    0.59010    0.32600    1.000
    H12      H        0.14700    0.94800    0.26100    1.000
    Zn7      Zn       0.44689    0.07691    0.60618    1.000
    P13      P        0.50544    0.89172    0.61139    1.000
    P14      P        0.74170    0.61842    0.72009    1.000
    O37      O        0.40320    0.96364    0.60220    1.000
    O38      O        0.81160    0.64024    0.81549    1.000
    O39      O        0.58810    0.87158    0.51851    1.000
    O40      O        0.84790    0.59100    0.64380    1.000
    O41      O        0.41770    0.81917    0.64900    1.000
    O42      O        0.64590    0.68590    0.68073    1.000
    H13      H        0.61500    0.90990    0.67400    1.000
    H14      H        0.64700    0.55200    0.73900    1.000
    Zn8      Zn       0.05311    0.42309    0.10618    1.000
    P15      P        0.99456    0.60828    0.11139    1.000
    P16      P        0.75830    0.88158    0.22009    1.000
    O43      O        0.09680    0.53636    0.10220    1.000
    O44      O        0.68840    0.85976    0.31549    1.000
    O45      O        0.91190    0.62842    0.01851    1.000
    O46      O        0.65210    0.90900    0.14380    1.000
    O47      O        0.08230    0.68083    0.14900    1.000
    O48      O        0.85410    0.81410    0.18073    1.000
    H15      H        0.88500    0.59010    0.17400    1.000
    H16      H        0.85300    0.94800    0.23900    1.000
    Zn9      Zn       0.50000    0.25069    0.25000    1.000
    Zn10     Zn       0.00000    0.24931    0.75000    1.000
    Zn11     Zn       0.50000    0.74931    0.75000    1.000
    Zn12     Zn       0.00000    0.75069    0.25000    1.000
