# CIF file generated by openbabel 3.1.0, see https://openbabel.org
data_I
_chemical_name_common 'image0'
_cell_length_a 11.4164
_cell_length_b 7.1985
_cell_length_c 6.6405
_cell_angle_alpha 90
_cell_angle_beta 109.829
_cell_angle_gamma 90
_space_group_name_H-M_alt 'P 1'
_space_group_name_Hall 'P 1'
loop_
    _symmetry_equiv_pos_as_xyz
    x,y,z
loop_
    _atom_site_label
    _atom_site_type_symbol
    _atom_site_fract_x
    _atom_site_fract_y
    _atom_site_fract_z
    _atom_site_occupancy
    O1       O        0.99140    0.52950    0.66170    1.000
    O2       O        0.82640    0.47630    0.88200    1.000
    O3       O        0.65430    0.33850    0.88240    1.000
    C1       C        0.76350    0.38090    0.96440    1.000
    H1       H        0.80400    0.33750    0.10260    1.000
    O4       O        0.49140    0.02950    0.66170    1.000
    O5       O        0.32640    0.97630    0.88200    1.000
    O6       O        0.15430    0.83850    0.88240    1.000
    C2       C        0.26350    0.88090    0.96440    1.000
    H2       H        0.30400    0.83750    0.10260    1.000
    O7       O        0.00860    0.52950    0.33830    1.000
    O8       O        0.17360    0.47630    0.11800    1.000
    O9       O        0.34570    0.33850    0.11760    1.000
    C3       C        0.23650    0.38090    0.03560    1.000
    H3       H        0.19600    0.33750    0.89740    1.000
    O10      O        0.50860    0.02950    0.33830    1.000
    O11      O        0.67360    0.97630    0.11800    1.000
    O12      O        0.84570    0.83850    0.11760    1.000
    C4       C        0.73650    0.88090    0.03560    1.000
    H4       H        0.69600    0.83750    0.89740    1.000
    Eu1      Eu       0.00000    0.67660    0.00000    1.000
    Eu2      Eu       0.50000    0.17660    0.00000    1.000
    C5       C        0.00000    0.60830    0.50000    1.000
    H5       H        0.00000    0.73750    0.50000    1.000
    C6       C        0.50000    0.10830    0.50000    1.000
    H6       H        0.50000    0.23750    0.50000    1.000
