# CIF file generated by openbabel 3.1.0, see https://openbabel.org
data_I
_chemical_name_common 'image0'
_cell_length_a 9.2713
_cell_length_b 14.453
_cell_length_c 9.996
_cell_angle_alpha 90
_cell_angle_beta 116.16
_cell_angle_gamma 90
_space_group_name_H-M_alt 'P 1'
_space_group_name_Hall 'P 1'
loop_
    _symmetry_equiv_pos_as_xyz
    x,y,z
loop_
    _atom_site_label
    _atom_site_type_symbol
    _atom_site_fract_x
    _atom_site_fract_y
    _atom_site_fract_z
    _atom_site_occupancy
    H1       H        0.43300    0.41600    0.52000    1.000
    H2       H        0.77500    0.29600    0.95500    1.000
    H3       H        0.04800    0.22400    0.95900    1.000
    H4       H        0.05700    0.19400    0.45600    1.000
    H5       H        0.99500    0.38000    0.88800    1.000
    In1      In       0.27157    0.35405    0.76791    1.000
    In2      In       0.00805    0.46119    0.25249    1.000
    In3      In       0.24713    0.06013    0.25239    1.000
    O1       O        0.12300    0.44160    0.11420    1.000
    O2       O        0.26880    0.12800    0.07400    1.000
    O3       O        0.02190    0.38040    0.62810    1.000
    O4       O        0.78620    0.48520    0.57970    1.000
    O5       O        0.00560    0.54140    0.88210    1.000
    O6       O        0.06220    0.32400    0.32880    1.000
    O7       O        0.23000    0.23660    0.86650    1.000
    O8       O        0.49850    0.57110    0.60020    1.000
    O9       O        0.32690    0.47930    0.69010    1.000
    O10      O        0.04710    0.10130    0.81070    1.000
    O11      O        0.22650    0.51940    0.41700    1.000
    O12      O        0.52210    0.33500    0.90550    1.000
    O13      O        0.27880    0.27690    0.58610    1.000
    O14      O        0.24280    0.18700    0.36070    1.000
    O15      O        0.76880    0.41440    0.09320    1.000
    O16      O        0.69460    0.43050    0.81620    1.000
    O17      O        0.88220    0.46980    0.38630    1.000
    O18      O        0.24450    0.43870    0.93540    1.000
    P1       P        0.37159    0.49554    0.56205    1.000
    P2       P        0.68945    0.37141    0.93744    1.000
    P3       P        0.14641    0.17077    0.92754    1.000
    P4       P        0.15709    0.24615    0.42857    1.000
    P5       P        0.08821    0.45113    0.95159    1.000
    P6       P        0.93385    0.46950    0.55297    1.000
    H6       H        0.01120    0.52400    0.60760    1.000
    H7       H        0.56700    0.91600    0.48000    1.000
    H8       H        0.22500    0.79600    0.04500    1.000
    H9       H        0.95200    0.72400    0.04100    1.000
    H10      H        0.94300    0.69400    0.54400    1.000
    H11      H        0.00500    0.88000    0.11200    1.000
    In4      In       0.72843    0.85405    0.23209    1.000
    In5      In       0.99195    0.96119    0.74751    1.000
    In6      In       0.75287    0.56013    0.74761    1.000
    O19      O        0.87700    0.94160    0.88580    1.000
    O20      O        0.73120    0.62800    0.92600    1.000
    O21      O        0.97810    0.88040    0.37190    1.000
    O22      O        0.21380    0.98520    0.42030    1.000
    O23      O        0.99440    0.04140    0.11790    1.000
    O24      O        0.93780    0.82400    0.67120    1.000
    O25      O        0.77000    0.73660    0.13350    1.000
    O26      O        0.50150    0.07110    0.39980    1.000
    O27      O        0.67310    0.97930    0.30990    1.000
    O28      O        0.95290    0.60130    0.18930    1.000
    O29      O        0.77350    0.01940    0.58300    1.000
    O30      O        0.47790    0.83500    0.09450    1.000
    O31      O        0.72120    0.77690    0.41390    1.000
    O32      O        0.75720    0.68700    0.63930    1.000
    O33      O        0.23120    0.91440    0.90680    1.000
    O34      O        0.30540    0.93050    0.18380    1.000
    O35      O        0.11780    0.96980    0.61370    1.000
    O36      O        0.75550    0.93870    0.06460    1.000
    P7       P        0.62841    0.99554    0.43795    1.000
    P8       P        0.31055    0.87141    0.06256    1.000
    P9       P        0.85359    0.67077    0.07246    1.000
    P10      P        0.84291    0.74615    0.57143    1.000
    P11      P        0.91179    0.95113    0.04841    1.000
    P12      P        0.06615    0.96950    0.44703    1.000
    H12      H        0.98880    0.02400    0.39240    1.000
