# CIF file generated by openbabel 3.1.0, see https://openbabel.org
data_I
_chemical_name_common 'image0'
_cell_length_a 20.508
_cell_length_b 20.508
_cell_length_c 17.792
_cell_angle_alpha 90
_cell_angle_beta 90
_cell_angle_gamma 90
_space_group_name_H-M_alt 'P 1'
_space_group_name_Hall 'P 1'
loop_
    _symmetry_equiv_pos_as_xyz
    x,y,z
loop_
    _atom_site_label
    _atom_site_type_symbol
    _atom_site_fract_x
    _atom_site_fract_y
    _atom_site_fract_z
    _atom_site_occupancy
    Zn1      Zn       0.74291    0.88078    0.78977    1.000
    O1       O        0.66349    0.05693    0.43090    1.000
    O2       O        0.84010    0.75990    0.45090    1.000
    C1       C        0.72560    0.96130    0.44400    1.000
    O3       O        0.76510    0.86770    0.68450    1.000
    O4       O        0.82810    0.81120    0.33970    1.000
    C2       C        0.72720    0.90460    0.64550    1.000
    O5       O        0.68470    0.94100    0.67360    1.000
    C3       C        0.71140    0.95750    0.51980    1.000
    H1       H        0.68490    0.98970    0.54310    1.000
    C4       C        0.73700    0.90510    0.56220    1.000
    C5       C        0.78250    0.85740    0.44870    1.000
    C6       C        0.77260    0.85670    0.52550    1.000
    H2       H        0.79070    0.82210    0.55420    1.000
    C7       C        0.81870    0.80420    0.41120    1.000
    C8       C        0.75970    0.91060    0.40980    1.000
    H3       H        0.76750    0.91290    0.35730    1.000
    O6       O        0.73930    0.03470    0.34280    1.000
    C9       C        0.70690    0.02220    0.40270    1.000
    Zn2      Zn       0.24291    0.38078    0.28977    1.000
    O7       O        0.16349    0.55693    0.93090    1.000
    O8       O        0.34010    0.25990    0.95090    1.000
    C10      C        0.22560    0.46130    0.94400    1.000
    O9       O        0.26510    0.36770    0.18450    1.000
    O10      O        0.32810    0.31120    0.83970    1.000
    C11      C        0.22720    0.40460    0.14550    1.000
    O11      O        0.18470    0.44100    0.17360    1.000
    C12      C        0.21140    0.45750    0.01980    1.000
    H4       H        0.18490    0.48970    0.04310    1.000
    C13      C        0.23700    0.40510    0.06220    1.000
    C14      C        0.28250    0.35740    0.94870    1.000
    C15      C        0.27260    0.35670    0.02550    1.000
    H5       H        0.29070    0.32210    0.05420    1.000
    C16      C        0.31870    0.30420    0.91120    1.000
    C17      C        0.25970    0.41060    0.90980    1.000
    H6       H        0.26750    0.41290    0.85730    1.000
    O12      O        0.23930    0.53470    0.84280    1.000
    C18      C        0.20690    0.52220    0.90270    1.000
    Zn3      Zn       0.25709    0.11922    0.78977    1.000
    O13      O        0.33651    0.94307    0.43090    1.000
    O14      O        0.15990    0.24010    0.45090    1.000
    C19      C        0.27440    0.03870    0.44400    1.000
    O15      O        0.23490    0.13230    0.68450    1.000
    O16      O        0.17190    0.18880    0.33970    1.000
    C20      C        0.27280    0.09540    0.64550    1.000
    O17      O        0.31530    0.05900    0.67360    1.000
    C21      C        0.28860    0.04250    0.51980    1.000
    H7       H        0.31510    0.01030    0.54310    1.000
    C22      C        0.26300    0.09490    0.56220    1.000
    C23      C        0.21750    0.14260    0.44870    1.000
    C24      C        0.22740    0.14330    0.52550    1.000
    H8       H        0.20930    0.17790    0.55420    1.000
    C25      C        0.18130    0.19580    0.41120    1.000
    C26      C        0.24030    0.08940    0.40980    1.000
    H9       H        0.23250    0.08710    0.35730    1.000
    O18      O        0.26070    0.96530    0.34280    1.000
    C27      C        0.29310    0.97780    0.40270    1.000
    Zn4      Zn       0.75709    0.61922    0.28977    1.000
    O19      O        0.83651    0.44307    0.93090    1.000
    O20      O        0.65990    0.74010    0.95090    1.000
    C28      C        0.77440    0.53870    0.94400    1.000
    O21      O        0.73490    0.63230    0.18450    1.000
    O22      O        0.67190    0.68880    0.83970    1.000
    C29      C        0.77280    0.59540    0.14550    1.000
    O23      O        0.81530    0.55900    0.17360    1.000
    C30      C        0.78860    0.54250    0.01980    1.000
    H10      H        0.81510    0.51030    0.04310    1.000
    C31      C        0.76300    0.59490    0.06220    1.000
    C32      C        0.71750    0.64260    0.94870    1.000
    C33      C        0.72740    0.64330    0.02550    1.000
    H11      H        0.70930    0.67790    0.05420    1.000
    C34      C        0.68130    0.69580    0.91120    1.000
    C35      C        0.74030    0.58940    0.90980    1.000
    H12      H        0.73250    0.58710    0.85730    1.000
    O24      O        0.76070    0.46530    0.84280    1.000
    C36      C        0.79310    0.47780    0.90270    1.000
    Zn5      Zn       0.11922    0.74291    0.78977    1.000
    O25      O        0.94307    0.66349    0.43090    1.000
    O26      O        0.24010    0.84010    0.45090    1.000
    C37      C        0.03870    0.72560    0.44400    1.000
    O27      O        0.13230    0.76510    0.68450    1.000
    O28      O        0.18880    0.82810    0.33970    1.000
    C38      C        0.09540    0.72720    0.64550    1.000
    O29      O        0.05900    0.68470    0.67360    1.000
    C39      C        0.04250    0.71140    0.51980    1.000
    H13      H        0.01030    0.68490    0.54310    1.000
    C40      C        0.09490    0.73700    0.56220    1.000
    C41      C        0.14260    0.78250    0.44870    1.000
    C42      C        0.14330    0.77260    0.52550    1.000
    H14      H        0.17790    0.79070    0.55420    1.000
    C43      C        0.19580    0.81870    0.41120    1.000
    C44      C        0.08940    0.75970    0.40980    1.000
    H15      H        0.08710    0.76750    0.35730    1.000
    O30      O        0.96530    0.73930    0.34280    1.000
    C45      C        0.97780    0.70690    0.40270    1.000
    Zn6      Zn       0.61922    0.24291    0.28977    1.000
    O31      O        0.44307    0.16349    0.93090    1.000
    O32      O        0.74010    0.34010    0.95090    1.000
    C46      C        0.53870    0.22560    0.94400    1.000
    O33      O        0.63230    0.26510    0.18450    1.000
    O34      O        0.68880    0.32810    0.83970    1.000
    C47      C        0.59540    0.22720    0.14550    1.000
    O35      O        0.55900    0.18470    0.17360    1.000
    C48      C        0.54250    0.21140    0.01980    1.000
    H16      H        0.51030    0.18490    0.04310    1.000
    C49      C        0.59490    0.23700    0.06220    1.000
    C50      C        0.64260    0.28250    0.94870    1.000
    C51      C        0.64330    0.27260    0.02550    1.000
    H17      H        0.67790    0.29070    0.05420    1.000
    C52      C        0.69580    0.31870    0.91120    1.000
    C53      C        0.58940    0.25970    0.90980    1.000
    H18      H        0.58710    0.26750    0.85730    1.000
    O36      O        0.46530    0.23930    0.84280    1.000
    C54      C        0.47780    0.20690    0.90270    1.000
    Zn7      Zn       0.88078    0.25709    0.78977    1.000
    O37      O        0.05693    0.33651    0.43090    1.000
    O38      O        0.75990    0.15990    0.45090    1.000
    C55      C        0.96130    0.27440    0.44400    1.000
    O39      O        0.86770    0.23490    0.68450    1.000
    O40      O        0.81120    0.17190    0.33970    1.000
    C56      C        0.90460    0.27280    0.64550    1.000
    O41      O        0.94100    0.31530    0.67360    1.000
    C57      C        0.95750    0.28860    0.51980    1.000
    H19      H        0.98970    0.31510    0.54310    1.000
    C58      C        0.90510    0.26300    0.56220    1.000
    C59      C        0.85740    0.21750    0.44870    1.000
    C60      C        0.85670    0.22740    0.52550    1.000
    H20      H        0.82210    0.20930    0.55420    1.000
    C61      C        0.80420    0.18130    0.41120    1.000
    C62      C        0.91060    0.24030    0.40980    1.000
    H21      H        0.91290    0.23250    0.35730    1.000
    O42      O        0.03470    0.26070    0.34280    1.000
    C63      C        0.02220    0.29310    0.40270    1.000
    Zn8      Zn       0.38078    0.75709    0.28977    1.000
    O43      O        0.55693    0.83651    0.93090    1.000
    O44      O        0.25990    0.65990    0.95090    1.000
    C64      C        0.46130    0.77440    0.94400    1.000
    O45      O        0.36770    0.73490    0.18450    1.000
    O46      O        0.31120    0.67190    0.83970    1.000
    C65      C        0.40460    0.77280    0.14550    1.000
    O47      O        0.44100    0.81530    0.17360    1.000
    C66      C        0.45750    0.78860    0.01980    1.000
    H22      H        0.48970    0.81510    0.04310    1.000
    C67      C        0.40510    0.76300    0.06220    1.000
    C68      C        0.35740    0.71750    0.94870    1.000
    C69      C        0.35670    0.72740    0.02550    1.000
    H23      H        0.32210    0.70930    0.05420    1.000
    C70      C        0.30420    0.68130    0.91120    1.000
    C71      C        0.41060    0.74030    0.90980    1.000
    H24      H        0.41290    0.73250    0.85730    1.000
    O48      O        0.53470    0.76070    0.84280    1.000
    C72      C        0.52220    0.79310    0.90270    1.000
    Zn9      Zn       0.74291    0.11922    0.28977    1.000
    O49      O        0.66349    0.94307    0.93090    1.000
    O50      O        0.84010    0.24010    0.95090    1.000
    C73      C        0.72560    0.03870    0.94400    1.000
    O51      O        0.76510    0.13230    0.18450    1.000
    O52      O        0.82810    0.18880    0.83970    1.000
    C74      C        0.72720    0.09540    0.14550    1.000
    O53      O        0.68470    0.05900    0.17360    1.000
    C75      C        0.71140    0.04250    0.01980    1.000
    H25      H        0.68490    0.01030    0.04310    1.000
    C76      C        0.73700    0.09490    0.06220    1.000
    C77      C        0.78250    0.14260    0.94870    1.000
    C78      C        0.77260    0.14330    0.02550    1.000
    H26      H        0.79070    0.17790    0.05420    1.000
    C79      C        0.81870    0.19580    0.91120    1.000
    C80      C        0.75970    0.08940    0.90980    1.000
    H27      H        0.76750    0.08710    0.85730    1.000
    O54      O        0.73930    0.96530    0.84280    1.000
    C81      C        0.70690    0.97780    0.90270    1.000
    Zn10     Zn       0.24291    0.61922    0.78977    1.000
    O55      O        0.16349    0.44307    0.43090    1.000
    O56      O        0.34010    0.74010    0.45090    1.000
    C82      C        0.22560    0.53870    0.44400    1.000
    O57      O        0.26510    0.63230    0.68450    1.000
    O58      O        0.32810    0.68880    0.33970    1.000
    C83      C        0.22720    0.59540    0.64550    1.000
    O59      O        0.18470    0.55900    0.67360    1.000
    C84      C        0.21140    0.54250    0.51980    1.000
    H28      H        0.18490    0.51030    0.54310    1.000
    C85      C        0.23700    0.59490    0.56220    1.000
    C86      C        0.28250    0.64260    0.44870    1.000
    C87      C        0.27260    0.64330    0.52550    1.000
    H29      H        0.29070    0.67790    0.55420    1.000
    C88      C        0.31870    0.69580    0.41120    1.000
    C89      C        0.25970    0.58940    0.40980    1.000
    H30      H        0.26750    0.58710    0.35730    1.000
    O60      O        0.23930    0.46530    0.34280    1.000
    C90      C        0.20690    0.47780    0.40270    1.000
    Zn11     Zn       0.25709    0.88078    0.28977    1.000
    O61      O        0.33651    0.05693    0.93090    1.000
    O62      O        0.15990    0.75990    0.95090    1.000
    C91      C        0.27440    0.96130    0.94400    1.000
    O63      O        0.23490    0.86770    0.18450    1.000
    O64      O        0.17190    0.81120    0.83970    1.000
    C92      C        0.27280    0.90460    0.14550    1.000
    O65      O        0.31530    0.94100    0.17360    1.000
    C93      C        0.28860    0.95750    0.01980    1.000
    H31      H        0.31510    0.98970    0.04310    1.000
    C94      C        0.26300    0.90510    0.06220    1.000
    C95      C        0.21750    0.85740    0.94870    1.000
    C96      C        0.22740    0.85670    0.02550    1.000
    H32      H        0.20930    0.82210    0.05420    1.000
    C97      C        0.18130    0.80420    0.91120    1.000
    C98      C        0.24030    0.91060    0.90980    1.000
    H33      H        0.23250    0.91290    0.85730    1.000
    O66      O        0.26070    0.03470    0.84280    1.000
    C99      C        0.29310    0.02220    0.90270    1.000
    Zn12     Zn       0.75709    0.38078    0.78977    1.000
    O67      O        0.83651    0.55693    0.43090    1.000
    O68      O        0.65990    0.25990    0.45090    1.000
    C100     C        0.77440    0.46130    0.44400    1.000
    O69      O        0.73490    0.36770    0.68450    1.000
    O70      O        0.67190    0.31120    0.33970    1.000
    C101     C        0.77280    0.40460    0.64550    1.000
    O71      O        0.81530    0.44100    0.67360    1.000
    C102     C        0.78860    0.45750    0.51980    1.000
    H34      H        0.81510    0.48970    0.54310    1.000
    C103     C        0.76300    0.40510    0.56220    1.000
    C104     C        0.71750    0.35740    0.44870    1.000
    C105     C        0.72740    0.35670    0.52550    1.000
    H35      H        0.70930    0.32210    0.55420    1.000
    C106     C        0.68130    0.30420    0.41120    1.000
    C107     C        0.74030    0.41060    0.40980    1.000
    H36      H        0.73250    0.41290    0.35730    1.000
    O72      O        0.76070    0.53470    0.34280    1.000
    C108     C        0.79310    0.52220    0.40270    1.000
    Zn13     Zn       0.11922    0.25709    0.28977    1.000
    O73      O        0.94307    0.33651    0.93090    1.000
    O74      O        0.24010    0.15990    0.95090    1.000
    C109     C        0.03870    0.27440    0.94400    1.000
    O75      O        0.13230    0.23490    0.18450    1.000
    O76      O        0.18880    0.17190    0.83970    1.000
    C110     C        0.09540    0.27280    0.14550    1.000
    O77      O        0.05900    0.31530    0.17360    1.000
    C111     C        0.04250    0.28860    0.01980    1.000
    H37      H        0.01030    0.31510    0.04310    1.000
    C112     C        0.09490    0.26300    0.06220    1.000
    C113     C        0.14260    0.21750    0.94870    1.000
    C114     C        0.14330    0.22740    0.02550    1.000
    H38      H        0.17790    0.20930    0.05420    1.000
    C115     C        0.19580    0.18130    0.91120    1.000
    C116     C        0.08940    0.24030    0.90980    1.000
    H39      H        0.08710    0.23250    0.85730    1.000
    O78      O        0.96530    0.26070    0.84280    1.000
    C117     C        0.97780    0.29310    0.90270    1.000
    Zn14     Zn       0.61922    0.75709    0.78977    1.000
    O79      O        0.44307    0.83651    0.43090    1.000
    O80      O        0.74010    0.65990    0.45090    1.000
    C118     C        0.53870    0.77440    0.44400    1.000
    O81      O        0.63230    0.73490    0.68450    1.000
    O82      O        0.68880    0.67190    0.33970    1.000
    C119     C        0.59540    0.77280    0.64550    1.000
    O83      O        0.55900    0.81530    0.67360    1.000
    C120     C        0.54250    0.78860    0.51980    1.000
    H40      H        0.51030    0.81510    0.54310    1.000
    C121     C        0.59490    0.76300    0.56220    1.000
    C122     C        0.64260    0.71750    0.44870    1.000
    C123     C        0.64330    0.72740    0.52550    1.000
    H41      H        0.67790    0.70930    0.55420    1.000
    C124     C        0.69580    0.68130    0.41120    1.000
    C125     C        0.58940    0.74030    0.40980    1.000
    H42      H        0.58710    0.73250    0.35730    1.000
    O84      O        0.46530    0.76070    0.34280    1.000
    C126     C        0.47780    0.79310    0.40270    1.000
    Zn15     Zn       0.88078    0.74291    0.28977    1.000
    O85      O        0.05693    0.66349    0.93090    1.000
    O86      O        0.75990    0.84010    0.95090    1.000
    C127     C        0.96130    0.72560    0.94400    1.000
    O87      O        0.86770    0.76510    0.18450    1.000
    O88      O        0.81120    0.82810    0.83970    1.000
    C128     C        0.90460    0.72720    0.14550    1.000
    O89      O        0.94100    0.68470    0.17360    1.000
    C129     C        0.95750    0.71140    0.01980    1.000
    H43      H        0.98970    0.68490    0.04310    1.000
    C130     C        0.90510    0.73700    0.06220    1.000
    C131     C        0.85740    0.78250    0.94870    1.000
    C132     C        0.85670    0.77260    0.02550    1.000
    H44      H        0.82210    0.79070    0.05420    1.000
    C133     C        0.80420    0.81870    0.91120    1.000
    C134     C        0.91060    0.75970    0.90980    1.000
    H45      H        0.91290    0.76750    0.85730    1.000
    O90      O        0.03470    0.73930    0.84280    1.000
    C135     C        0.02220    0.70690    0.90270    1.000
    Zn16     Zn       0.38078    0.24291    0.78977    1.000
    O91      O        0.55693    0.16349    0.43090    1.000
    O92      O        0.25990    0.34010    0.45090    1.000
    C136     C        0.46130    0.22560    0.44400    1.000
    O93      O        0.36770    0.26510    0.68450    1.000
    O94      O        0.31120    0.32810    0.33970    1.000
    C137     C        0.40460    0.22720    0.64550    1.000
    O95      O        0.44100    0.18470    0.67360    1.000
    C138     C        0.45750    0.21140    0.51980    1.000
    H46      H        0.48970    0.18490    0.54310    1.000
    C139     C        0.40510    0.23700    0.56220    1.000
    C140     C        0.35740    0.28250    0.44870    1.000
    C141     C        0.35670    0.27260    0.52550    1.000
    H47      H        0.32210    0.29070    0.55420    1.000
    C142     C        0.30420    0.31870    0.41120    1.000
    C143     C        0.41060    0.25970    0.40980    1.000
    H48      H        0.41290    0.26750    0.35730    1.000
    O96      O        0.53470    0.23930    0.34280    1.000
    C144     C        0.52220    0.20690    0.40270    1.000
    Co1      Co       0.65818    0.84182    0.93856    1.000
    O97      O        0.66237    0.83763    0.81950    1.000
    Co2      Co       0.34182    0.15818    0.93856    1.000
    O98      O        0.33763    0.16237    0.81950    1.000
    Co3      Co       0.15818    0.65818    0.93856    1.000
    O99      O        0.16237    0.66237    0.81950    1.000
    Co4      Co       0.84182    0.34182    0.93856    1.000
    O100     O        0.83763    0.33763    0.81950    1.000
    Co5      Co       0.65818    0.15818    0.43856    1.000
    O101     O        0.66237    0.16237    0.31950    1.000
    Co6      Co       0.34182    0.84182    0.43856    1.000
    O102     O        0.33763    0.83763    0.31950    1.000
    Co7      Co       0.15818    0.34182    0.43856    1.000
    O103     O        0.16237    0.33763    0.31950    1.000
    Co8      Co       0.84182    0.65818    0.43856    1.000
    O104     O        0.83763    0.66237    0.31950    1.000
