# CIF file generated by openbabel 3.1.0, see https://openbabel.org
data_I
_chemical_name_common 'TARVOX_clean'
_cell_length_a 6.94
_cell_length_b 12.6981
_cell_length_c 12.6981
_cell_angle_alpha 97.4329
_cell_angle_beta 96.3023
_cell_angle_gamma 83.6977
_space_group_name_H-M_alt 'P 1'
_space_group_name_Hall 'P 1'
loop_
    _symmetry_equiv_pos_as_xyz
    x,y,z
loop_
    _atom_site_label
    _atom_site_type_symbol
    _atom_site_fract_x
    _atom_site_fract_y
    _atom_site_fract_z
    _atom_site_occupancy
    Co1      Co       0.90870    0.32046    0.05332    1.000
    Co2      Co       0.59130    0.05332    0.32046    1.000
    Co3      Co       0.09130    0.67954    0.94668    1.000
    Co4      Co       0.40870    0.94668    0.67954    1.000
    H1       H        0.43010    0.42300    0.54840    1.000
    H2       H        0.06990    0.54840    0.42300    1.000
    H3       H        0.56990    0.57700    0.45160    1.000
    H4       H        0.93010    0.45160    0.57700    1.000
    C1       C        0.44380    0.53630    0.66570    1.000
    C2       C        0.36410    0.35970    0.66910    1.000
    C3       C        0.33120    0.48630    0.81190    1.000
    C4       C        0.51840    0.70160    0.64980    1.000
    C5       C        0.31410    0.18400    0.65320    1.000
    C6       C        0.20170    0.44780    0.96000    1.000
    C7       C        0.05620    0.66570    0.53630    1.000
    C8       C        0.13590    0.66910    0.35970    1.000
    C9       C        0.16880    0.81190    0.48630    1.000
    C10      C        0.98160    0.64980    0.70160    1.000
    C11      C        0.18590    0.65320    0.18400    1.000
    C12      C        0.29830    0.96000    0.44780    1.000
    C13      C        0.55620    0.46370    0.33430    1.000
    C14      C        0.63590    0.64030    0.33090    1.000
    C15      C        0.66880    0.51370    0.18810    1.000
    C16      C        0.48160    0.29840    0.35020    1.000
    C17      C        0.68590    0.81600    0.34680    1.000
    C18      C        0.79830    0.55220    0.04000    1.000
    C19      C        0.94380    0.33430    0.46370    1.000
    C20      C        0.86410    0.33090    0.64030    1.000
    C21      C        0.83120    0.18810    0.51370    1.000
    C22      C        0.01840    0.35020    0.29840    1.000
    C23      C        0.81410    0.34680    0.81600    1.000
    C24      C        0.70170    0.04000    0.55220    1.000
    N1       N        0.41550    0.43710    0.61530    1.000
    N2       N        0.32440    0.38250    0.77050    1.000
    N3       N        0.39810    0.56250    0.76590    1.000
    N4       N        0.50930    0.60180    0.60800    1.000
    N5       N        0.52850    0.79050    0.67850    1.000
    N6       N        0.35080    0.26630    0.60950    1.000
    N7       N        0.28540    0.10380    0.68140    1.000
    N8       N        0.25940    0.52010    0.90770    1.000
    N9       N        0.14490    0.39300    0.01220    1.000
    N10      N        0.08450    0.61530    0.43710    1.000
    N11      N        0.17560    0.77050    0.38250    1.000
    N12      N        0.10190    0.76590    0.56250    1.000
    N13      N        0.99070    0.60800    0.60180    1.000
    N14      N        0.97150    0.67850    0.79050    1.000
    N15      N        0.14920    0.60950    0.26630    1.000
    N16      N        0.21460    0.68140    0.10380    1.000
    N17      N        0.24060    0.90770    0.52010    1.000
    N18      N        0.35510    0.01220    0.39300    1.000
    N19      N        0.58450    0.56290    0.38470    1.000
    N20      N        0.67560    0.61750    0.22950    1.000
    N21      N        0.60190    0.43750    0.23410    1.000
    N22      N        0.49070    0.39820    0.39200    1.000
    N23      N        0.47150    0.20950    0.32150    1.000
    N24      N        0.64920    0.73370    0.39050    1.000
    N25      N        0.71460    0.89620    0.31860    1.000
    N26      N        0.74060    0.47990    0.09230    1.000
    N27      N        0.85510    0.60700    0.98780    1.000
    N28      N        0.91550    0.38470    0.56290    1.000
    N29      N        0.82440    0.22950    0.61750    1.000
    N30      N        0.89810    0.23410    0.43750    1.000
    N31      N        0.00930    0.39200    0.39820    1.000
    N32      N        0.02850    0.32150    0.20950    1.000
    N33      N        0.85080    0.39050    0.73370    1.000
    N34      N        0.78540    0.31860    0.89620    1.000
    N35      N        0.75940    0.09230    0.47990    1.000
    N36      N        0.64490    0.98780    0.60700    1.000
