# CIF file generated by openbabel 3.1.0, see https://openbabel.org
data_I
_chemical_name_common 'image0'
_cell_length_a 12.608
_cell_length_b 12.769
_cell_length_c 21.876
_cell_angle_alpha 98.05
_cell_angle_beta 96.84
_cell_angle_gamma 118.109
_space_group_name_H-M_alt 'P 1'
_space_group_name_Hall 'P 1'
loop_
    _symmetry_equiv_pos_as_xyz
    x,y,z
loop_
    _atom_site_label
    _atom_site_type_symbol
    _atom_site_fract_x
    _atom_site_fract_y
    _atom_site_fract_z
    _atom_site_occupancy
    Er1      Er       0.06169    0.54521    0.09497    1.000
    Er2      Er       0.93109    0.95843    0.40296    1.000
    S1       S        0.26109    0.98173    0.98692    1.000
    S2       S        0.50720    0.29960    0.25286    1.000
    S3       S        0.50697    0.73810    0.47699    1.000
    O1       O        0.05290    0.37020    0.04510    1.000
    O2       O        0.02170    0.34340    0.94010    1.000
    O3       O        0.22280    0.90520    0.92460    1.000
    O4       O        0.24040    0.92830    0.04090    1.000
    O5       O        0.85550    0.41180    0.08820    1.000
    O6       O        0.84540    0.39540    0.98540    1.000
    O7       O        0.25870    0.62080    0.14220    1.000
    O8       O        0.30310    0.69980    0.24620    1.000
    O9       O        0.54660    0.26050    0.19910    1.000
    O10      O        0.58960    0.35050    0.31370    1.000
    O11      O        0.95740    0.91730    0.30590    1.000
    O12      O        0.96840    0.78910    0.22990    1.000
    O13      O        0.09130    0.91640    0.41500    1.000
    O14      O        0.14370    0.98100    0.51950    1.000
    O15      O        0.60000    0.79900    0.53400    1.000
    O16      O        0.54240    0.73070    0.41690    1.000
    O17      O        0.09520    0.14620    0.44460    1.000
    O18      O        0.14220    0.20550    0.55010    1.000
    O19      O        0.72530    0.83640    0.35030    1.000
    H1       H        0.67660    0.82150    0.37710    1.000
    H2       H        0.74370    0.78970    0.35020    1.000
    C1       C        0.05100    0.32040    0.99130    1.000
    C2       C        0.09230    0.22580    0.98830    1.000
    C3       C        0.11860    0.18600    0.93290    1.000
    H3       H        0.10230    0.21070    0.89550    1.000
    C4       C        0.16870    0.10990    0.93240    1.000
    H4       H        0.18890    0.08380    0.89480    1.000
    C5       C        0.18890    0.07240    0.98590    1.000
    C6       C        0.15910    0.10840    0.04200    1.000
    H5       H        0.17070    0.08000    0.07870    1.000
    C7       C        0.11220    0.18700    0.04160    1.000
    H6       H        0.09340    0.21470    0.07920    1.000
    C8       C        0.79650    0.36440    0.03130    1.000
    C9       C        0.66380    0.26900    0.01940    1.000
    C10      C        0.61310    0.22600    0.06960    1.000
    H7       H        0.66240    0.25770    0.11120    1.000
    C11      C        0.48910    0.13580    0.05930    1.000
    H8       H        0.45430    0.10590    0.09350    1.000
    C12      C        0.41930    0.09160    0.99950    1.000
    C13      C        0.46960    0.13360    0.94840    1.000
    H9       H        0.42020    0.10220    0.90680    1.000
    C14      C        0.59180    0.22090    0.95920    1.000
    H10      H        0.62710    0.24840    0.92460    1.000
    C15      C        0.30690    0.63340    0.19990    1.000
    C16      C        0.36600    0.55790    0.21130    1.000
    C17      C        0.43700    0.57830    0.27060    1.000
    H11      H        0.45320    0.64510    0.30290    1.000
    C18      C        0.48400    0.50310    0.28320    1.000
    H12      H        0.53220    0.51830    0.32360    1.000
    C19      C        0.45980    0.40440    0.23550    1.000
    C20      C        0.39050    0.38150    0.17650    1.000
    H13      H        0.37340    0.31370    0.14460    1.000
    C21      C        0.34570    0.45970    0.16430    1.000
    H14      H        0.30040    0.44590    0.12330    1.000
    C22      C        0.01190    0.88890    0.26750    1.000
    C23      C        0.13950    0.98850    0.26480    1.000
    C24      C        0.18360    0.98700    0.20960    1.000
    H15      H        0.13580    0.92100    0.17420    1.000
    C25      C        0.29580    0.08020    0.20580    1.000
    H16      H        0.32400    0.07980    0.16740    1.000
    C26      C        0.36810    0.17550    0.25860    1.000
    C27      C        0.32740    0.17660    0.31440    1.000
    H17      H        0.37760    0.23950    0.35090    1.000
    C28      C        0.21080    0.08340    0.31650    1.000
    H18      H        0.18040    0.08550    0.35400    1.000
    C29      C        0.15230    0.22350    0.49580    1.000
    C30      C        0.24300    0.35260    0.49130    1.000
    C31      C        0.26500    0.37810    0.43340    1.000
    H19      H        0.22390    0.31470    0.39640    1.000
    C32      C        0.34640    0.49550    0.42850    1.000
    H20      H        0.36070    0.51250    0.38840    1.000
    C33      C        0.40620    0.58680    0.48260    1.000
    C34      C        0.38560    0.56370    0.54110    1.000
    H21      H        0.42700    0.62760    0.57800    1.000
    C35      C        0.30410    0.44690    0.54570    1.000
    H22      H        0.28950    0.43050    0.58580    1.000
    C36      C        0.15530    0.93500    0.46770    1.000
    C37      C        0.25290    0.89690    0.46990    1.000
    C38      C        0.31590    0.90240    0.52780    1.000
    H23      H        0.30380    0.93700    0.56590    1.000
    C39      C        0.39710    0.85680    0.53000    1.000
    H24      H        0.44090    0.86030    0.56940    1.000
    C40      C        0.41280    0.80670    0.47400    1.000
    C41      C        0.35540    0.80500    0.41570    1.000
    H25      H        0.37080    0.77360    0.37790    1.000
    C42      C        0.27340    0.85090    0.41390    1.000
    H26      H        0.23220    0.85050    0.37440    1.000
    Er3      Er       0.93831    0.45479    0.90503    1.000
    Er4      Er       0.06891    0.04157    0.59704    1.000
    S4       S        0.73891    0.01827    0.01308    1.000
    S5       S        0.49280    0.70040    0.74714    1.000
    S6       S        0.49303    0.26190    0.52301    1.000
    O20      O        0.94710    0.62980    0.95490    1.000
    O21      O        0.97830    0.65660    0.05990    1.000
    O22      O        0.77720    0.09480    0.07540    1.000
    O23      O        0.75960    0.07170    0.95910    1.000
    O24      O        0.14450    0.58820    0.91180    1.000
    O25      O        0.15460    0.60460    0.01460    1.000
    O26      O        0.74130    0.37920    0.85780    1.000
    O27      O        0.69690    0.30020    0.75380    1.000
    O28      O        0.45340    0.73950    0.80090    1.000
    O29      O        0.41040    0.64950    0.68630    1.000
    O30      O        0.04260    0.08270    0.69410    1.000
    O31      O        0.03160    0.21090    0.77010    1.000
    O32      O        0.90870    0.08360    0.58500    1.000
    O33      O        0.85630    0.01900    0.48050    1.000
    O34      O        0.40000    0.20100    0.46600    1.000
    O35      O        0.45760    0.26930    0.58310    1.000
    O36      O        0.90480    0.85380    0.55540    1.000
    O37      O        0.85780    0.79450    0.44990    1.000
    O38      O        0.27470    0.16360    0.64970    1.000
    H27      H        0.32340    0.17850    0.62290    1.000
    H28      H        0.25630    0.21030    0.64980    1.000
    C43      C        0.94900    0.67960    0.00870    1.000
    C44      C        0.90770    0.77420    0.01170    1.000
    C45      C        0.88140    0.81400    0.06710    1.000
    H29      H        0.89770    0.78930    0.10450    1.000
    C46      C        0.83130    0.89010    0.06760    1.000
    H30      H        0.81110    0.91620    0.10520    1.000
    C47      C        0.81110    0.92760    0.01410    1.000
    C48      C        0.84090    0.89160    0.95800    1.000
    H31      H        0.82930    0.92000    0.92130    1.000
    C49      C        0.88780    0.81300    0.95840    1.000
    H32      H        0.90660    0.78530    0.92080    1.000
    C50      C        0.20350    0.63560    0.96870    1.000
    C51      C        0.33620    0.73100    0.98060    1.000
    C52      C        0.38690    0.77400    0.93040    1.000
    H33      H        0.33760    0.74230    0.88880    1.000
    C53      C        0.51090    0.86420    0.94070    1.000
    H34      H        0.54570    0.89410    0.90650    1.000
    C54      C        0.58070    0.90840    0.00050    1.000
    C55      C        0.53040    0.86640    0.05160    1.000
    H35      H        0.57980    0.89780    0.09320    1.000
    C56      C        0.40820    0.77910    0.04080    1.000
    H36      H        0.37290    0.75160    0.07540    1.000
    C57      C        0.69310    0.36660    0.80010    1.000
    C58      C        0.63400    0.44210    0.78870    1.000
    C59      C        0.56300    0.42170    0.72940    1.000
    H37      H        0.54680    0.35490    0.69710    1.000
    C60      C        0.51600    0.49690    0.71680    1.000
    H38      H        0.46780    0.48170    0.67640    1.000
    C61      C        0.54020    0.59560    0.76450    1.000
    C62      C        0.60950    0.61850    0.82350    1.000
    H39      H        0.62660    0.68630    0.85540    1.000
    C63      C        0.65430    0.54030    0.83570    1.000
    H40      H        0.69960    0.55410    0.87670    1.000
    C64      C        0.98810    0.11110    0.73250    1.000
    C65      C        0.86050    0.01150    0.73520    1.000
    C66      C        0.81640    0.01300    0.79040    1.000
    H41      H        0.86420    0.07900    0.82580    1.000
    C67      C        0.70420    0.91980    0.79420    1.000
    H42      H        0.67600    0.92020    0.83260    1.000
    C68      C        0.63190    0.82450    0.74140    1.000
    C69      C        0.67260    0.82340    0.68560    1.000
    H43      H        0.62240    0.76050    0.64910    1.000
    C70      C        0.78920    0.91660    0.68350    1.000
    H44      H        0.81960    0.91450    0.64600    1.000
    C71      C        0.84770    0.77650    0.50420    1.000
    C72      C        0.75700    0.64740    0.50870    1.000
    C73      C        0.73500    0.62190    0.56660    1.000
    H45      H        0.77610    0.68530    0.60360    1.000
    C74      C        0.65360    0.50450    0.57150    1.000
    H46      H        0.63930    0.48750    0.61160    1.000
    C75      C        0.59380    0.41320    0.51740    1.000
    C76      C        0.61440    0.43630    0.45890    1.000
    H47      H        0.57300    0.37240    0.42200    1.000
    C77      C        0.69590    0.55310    0.45430    1.000
    H48      H        0.71050    0.56950    0.41420    1.000
    C78      C        0.84470    0.06500    0.53230    1.000
    C79      C        0.74710    0.10310    0.53010    1.000
    C80      C        0.68410    0.09760    0.47220    1.000
    H49      H        0.69620    0.06300    0.43410    1.000
    C81      C        0.60290    0.14320    0.47000    1.000
    H50      H        0.55910    0.13970    0.43060    1.000
    C82      C        0.58720    0.19330    0.52600    1.000
    C83      C        0.64460    0.19500    0.58430    1.000
    H51      H        0.62920    0.22640    0.62210    1.000
    C84      C        0.72660    0.14910    0.58610    1.000
    H52      H        0.76780    0.14950    0.62560    1.000
