# CIF file generated by openbabel 3.1.0, see https://openbabel.org
data_I
_chemical_name_common 'PAPPED_clean'
_cell_length_a 12.9292
_cell_length_b 12.9292
_cell_length_c 20.1039
_cell_angle_alpha 90
_cell_angle_beta 90
_cell_angle_gamma 120
_space_group_name_H-M_alt 'P 1'
_space_group_name_Hall 'P 1'
loop_
    _symmetry_equiv_pos_as_xyz
    x,y,z
loop_
    _atom_site_label
    _atom_site_type_symbol
    _atom_site_fract_x
    _atom_site_fract_y
    _atom_site_fract_z
    _atom_site_occupancy
    Cu1      Cu       0.62047    0.00000    0.00000    1.000
    Cu2      Cu       0.37953    0.37953    0.33333    1.000
    Cu3      Cu       0.00000    0.62047    0.66667    1.000
    H1       H        0.87140    0.10010    0.94650    1.000
    H2       H        0.95910    0.08800    0.84930    1.000
    H3       H        0.84660    0.94510    0.77020    1.000
    H4       H        0.56870    0.82170    0.89440    1.000
    H5       H        0.54230    0.73750    0.79270    1.000
    H6       H        0.47250    0.64050    0.69160    1.000
    H7       H        0.47850    0.52610    0.78050    1.000
    H8       H        0.56550    0.49810    0.74050    1.000
    H9       H        0.40630    0.39440    0.66050    1.000
    H10      H        0.21300    0.33060    0.69820    1.000
    H11      H        0.28550    0.46950    0.68870    1.000
    H12      H        0.26590    0.41440    0.76020    1.000
    H13      H        0.37590    0.29660    0.78890    1.000
    H14      H        0.44700    0.28030    0.73060    1.000
    H15      H        0.30760    0.21970    0.72660    1.000
    H16      H        0.63840    0.60750    0.62340    1.000
    H17      H        0.72890    0.64970    0.53250    1.000
    H18      H        0.78550    0.60570    0.43160    1.000
    H19      H        0.64220    0.49590    0.35420    1.000
    H20      H        0.39360    0.48920    0.46690    1.000
    H21      H        0.22870    0.12860    0.27983    1.000
    H22      H        0.12890    0.04090    0.18263    1.000
    H23      H        0.09850    0.15340    0.10353    1.000
    H24      H        0.25300    0.43130    0.22773    1.000
    H25      H        0.19520    0.45770    0.12603    1.000
    H26      H        0.16800    0.52750    0.02493    1.000
    H27      H        0.04760    0.52150    0.11383    1.000
    H28      H        0.93260    0.43450    0.07383    1.000
    H29      H        0.98810    0.59370    0.99383    1.000
    H30      H        0.11760    0.78700    0.03153    1.000
    H31      H        0.18400    0.71450    0.02203    1.000
    H32      H        0.14850    0.73410    0.09353    1.000
    H33      H        0.92070    0.62410    0.12223    1.000
    H34      H        0.83330    0.55300    0.06393    1.000
    H35      H        0.91210    0.69240    0.05993    1.000
    H36      H        0.96910    0.36160    0.95673    1.000
    H37      H        0.92080    0.27110    0.86583    1.000
    H38      H        0.82020    0.21450    0.76493    1.000
    H39      H        0.85370    0.35780    0.68753    1.000
    H40      H        0.09560    0.60640    0.80023    1.000
    H41      H        0.89990    0.77130    0.61317    1.000
    H42      H        0.91200    0.87110    0.51597    1.000
    H43      H        0.05490    0.90150    0.43687    1.000
    H44      H        0.17830    0.74700    0.56107    1.000
    H45      H        0.26250    0.80480    0.45937    1.000
    H46      H        0.35950    0.83200    0.35827    1.000
    H47      H        0.47390    0.95240    0.44717    1.000
    H48      H        0.50190    0.06740    0.40717    1.000
    H49      H        0.60560    0.01190    0.32717    1.000
    H50      H        0.66940    0.88240    0.36487    1.000
    H51      H        0.53050    0.81600    0.35537    1.000
    H52      H        0.58560    0.85150    0.42687    1.000
    H53      H        0.70340    0.07930    0.45557    1.000
    H54      H        0.71970    0.16670    0.39727    1.000
    H55      H        0.78030    0.08790    0.39327    1.000
    H56      H        0.39250    0.03090    0.29007    1.000
    H57      H        0.35030    0.07920    0.19917    1.000
    H58      H        0.39430    0.17980    0.09827    1.000
    H59      H        0.50410    0.14630    0.02087    1.000
    H60      H        0.51080    0.90440    0.13357    1.000
    H61      H        0.77130    0.89990    0.05350    1.000
    H62      H        0.87110    0.91200    0.15070    1.000
    H63      H        0.90150    0.05490    0.22980    1.000
    H64      H        0.74700    0.17830    0.10560    1.000
    H65      H        0.80480    0.26250    0.20730    1.000
    H66      H        0.83200    0.35950    0.30840    1.000
    H67      H        0.95240    0.47390    0.21950    1.000
    H68      H        0.06740    0.50190    0.25950    1.000
    H69      H        0.01190    0.60560    0.33950    1.000
    H70      H        0.88240    0.66940    0.30180    1.000
    H71      H        0.81600    0.53050    0.31130    1.000
    H72      H        0.85150    0.58560    0.23980    1.000
    H73      H        0.07930    0.70340    0.21110    1.000
    H74      H        0.16670    0.71970    0.26940    1.000
    H75      H        0.08790    0.78030    0.27340    1.000
    H76      H        0.03090    0.39250    0.37660    1.000
    H77      H        0.07920    0.35030    0.46750    1.000
    H78      H        0.17980    0.39430    0.56840    1.000
    H79      H        0.14630    0.50410    0.64580    1.000
    H80      H        0.90440    0.51080    0.53310    1.000
    H81      H        0.10010    0.87140    0.72017    1.000
    H82      H        0.08800    0.95910    0.81737    1.000
    H83      H        0.94510    0.84660    0.89647    1.000
    H84      H        0.82170    0.56870    0.77227    1.000
    H85      H        0.73750    0.54230    0.87397    1.000
    H86      H        0.64050    0.47250    0.97507    1.000
    H87      H        0.52610    0.47850    0.88617    1.000
    H88      H        0.49810    0.56550    0.92617    1.000
    H89      H        0.39440    0.40630    0.00617    1.000
    H90      H        0.33060    0.21300    0.96847    1.000
    H91      H        0.46950    0.28550    0.97797    1.000
    H92      H        0.41440    0.26590    0.90647    1.000
    H93      H        0.29660    0.37590    0.87777    1.000
    H94      H        0.28030    0.44700    0.93607    1.000
    H95      H        0.21970    0.30760    0.94007    1.000
    H96      H        0.60750    0.63840    0.04327    1.000
    H97      H        0.64970    0.72890    0.13417    1.000
    H98      H        0.60570    0.78550    0.23507    1.000
    H99      H        0.49590    0.64220    0.31247    1.000
    H100     H        0.48920    0.39360    0.19977    1.000
    H101     H        0.12860    0.22870    0.38683    1.000
    H102     H        0.04090    0.12890    0.48403    1.000
    H103     H        0.15340    0.09850    0.56313    1.000
    H104     H        0.43130    0.25300    0.43893    1.000
    H105     H        0.45770    0.19520    0.54063    1.000
    H106     H        0.52750    0.16800    0.64173    1.000
    H107     H        0.52150    0.04760    0.55283    1.000
    H108     H        0.43450    0.93260    0.59283    1.000
    H109     H        0.59370    0.98810    0.67283    1.000
    H110     H        0.78700    0.11760    0.63513    1.000
    H111     H        0.71450    0.18400    0.64463    1.000
    H112     H        0.73410    0.14850    0.57313    1.000
    H113     H        0.62410    0.92070    0.54443    1.000
    H114     H        0.55300    0.83330    0.60273    1.000
    H115     H        0.69240    0.91210    0.60673    1.000
    H116     H        0.36160    0.96910    0.70993    1.000
    H117     H        0.27110    0.92080    0.80083    1.000
    H118     H        0.21450    0.82020    0.90173    1.000
    H119     H        0.35780    0.85370    0.97913    1.000
    H120     H        0.60640    0.09560    0.86643    1.000
    C1       C        0.82580    0.04160    0.91544    1.000
    C2       C        0.87870    0.03450    0.85704    1.000
    C3       C        0.81240    0.94820    0.81029    1.000
    C4       C        0.69490    0.86670    0.82412    1.000
    C5       C        0.64740    0.87780    0.88414    1.000
    C6       C        0.64600    0.73240    0.72703    1.000
    C7       C        0.53880    0.62440    0.69501    1.000
    C8       C        0.49880    0.51220    0.73625    1.000
    C9       C        0.39160    0.39910    0.70788    1.000
    C10      C        0.27890    0.40380    0.71430    1.000
    C11      C        0.37940    0.28880    0.74160    1.000
    C12      C        0.50700    0.59540    0.57425    1.000
    C13      C        0.55370    0.57270    0.51081    1.000
    C14      C        0.67210    0.60790    0.49983    1.000
    C15      C        0.70570    0.58070    0.44013    1.000
    C16      C        0.61970    0.51640    0.39375    1.000
    C17      C        0.47320    0.51120    0.46051    1.000
    C18      C        0.21580    0.17420    0.24877    1.000
    C19      C        0.15580    0.12130    0.19037    1.000
    C20      C        0.13580    0.18760    0.14362    1.000
    C21      C        0.17180    0.30510    0.15745    1.000
    C22      C        0.23040    0.35260    0.21747    1.000
    C23      C        0.08640    0.35400    0.06036    1.000
    C24      C        0.08560    0.46120    0.02834    1.000
    C25      C        0.01340    0.50120    0.06958    1.000
    C26      C        0.00750    0.60840    0.04121    1.000
    C27      C        0.12490    0.72110    0.04763    1.000
    C28      C        0.90940    0.62060    0.07493    1.000
    C29      C        0.08840    0.49300    0.90758    1.000
    C30      C        0.01900    0.44630    0.84414    1.000
    C31      C        0.93580    0.32790    0.83316    1.000
    C32      C        0.87500    0.29430    0.77346    1.000
    C33      C        0.89670    0.38030    0.72708    1.000
    C34      C        0.03800    0.52680    0.79384    1.000
    C35      C        0.95840    0.78420    0.58211    1.000
    C36      C        0.96550    0.84420    0.52371    1.000
    C37      C        0.05180    0.86420    0.47696    1.000
    C38      C        0.13330    0.82820    0.49079    1.000
    C39      C        0.12220    0.76960    0.55081    1.000
    C40      C        0.26760    0.91360    0.39370    1.000
    C41      C        0.37560    0.91440    0.36168    1.000
    C42      C        0.48780    0.98660    0.40292    1.000
    C43      C        0.60090    0.99250    0.37455    1.000
    C44      C        0.59620    0.87510    0.38097    1.000
    C45      C        0.71120    0.09060    0.40827    1.000
    C46      C        0.40460    0.91160    0.24092    1.000
    C47      C        0.42730    0.98100    0.17748    1.000
    C48      C        0.39210    0.06420    0.16650    1.000
    C49      C        0.41930    0.12500    0.10680    1.000
    C50      C        0.48360    0.10330    0.06042    1.000
    C51      C        0.48880    0.96200    0.12718    1.000
    C52      C        0.78420    0.95840    0.08456    1.000
    C53      C        0.84420    0.96550    0.14296    1.000
    C54      C        0.86420    0.05180    0.18971    1.000
    C55      C        0.82820    0.13330    0.17588    1.000
    C56      C        0.76960    0.12220    0.11586    1.000
    C57      C        0.91360    0.26760    0.27297    1.000
    C58      C        0.91440    0.37560    0.30499    1.000
    C59      C        0.98660    0.48780    0.26375    1.000
    C60      C        0.99250    0.60090    0.29212    1.000
    C61      C        0.87510    0.59620    0.28570    1.000
    C62      C        0.09060    0.71120    0.25840    1.000
    C63      C        0.91160    0.40460    0.42575    1.000
    C64      C        0.98100    0.42730    0.48919    1.000
    C65      C        0.06420    0.39210    0.50017    1.000
    C66      C        0.12500    0.41930    0.55987    1.000
    C67      C        0.10330    0.48360    0.60625    1.000
    C68      C        0.96200    0.48880    0.53949    1.000
    C69      C        0.04160    0.82580    0.75123    1.000
    C70      C        0.03450    0.87870    0.80963    1.000
    C71      C        0.94820    0.81240    0.85638    1.000
    C72      C        0.86670    0.69490    0.84255    1.000
    C73      C        0.87780    0.64740    0.78253    1.000
    C74      C        0.73240    0.64600    0.93964    1.000
    C75      C        0.62440    0.53880    0.97166    1.000
    C76      C        0.51220    0.49880    0.93042    1.000
    C77      C        0.39910    0.39160    0.95879    1.000
    C78      C        0.40380    0.27890    0.95237    1.000
    C79      C        0.28880    0.37940    0.92507    1.000
    C80      C        0.59540    0.50700    0.09242    1.000
    C81      C        0.57270    0.55370    0.15586    1.000
    C82      C        0.60790    0.67210    0.16684    1.000
    C83      C        0.58070    0.70570    0.22654    1.000
    C84      C        0.51640    0.61970    0.27292    1.000
    C85      C        0.51120    0.47320    0.20616    1.000
    C86      C        0.17420    0.21580    0.41789    1.000
    C87      C        0.12130    0.15580    0.47629    1.000
    C88      C        0.18760    0.13580    0.52304    1.000
    C89      C        0.30510    0.17180    0.50921    1.000
    C90      C        0.35260    0.23040    0.44919    1.000
    C91      C        0.35400    0.08640    0.60630    1.000
    C92      C        0.46120    0.08560    0.63832    1.000
    C93      C        0.50120    0.01340    0.59708    1.000
    C94      C        0.60840    0.00750    0.62545    1.000
    C95      C        0.72110    0.12490    0.61903    1.000
    C96      C        0.62060    0.90940    0.59173    1.000
    C97      C        0.49300    0.08840    0.75908    1.000
    C98      C        0.44630    0.01900    0.82252    1.000
    C99      C        0.32790    0.93580    0.83350    1.000
    C100     C        0.29430    0.87500    0.89320    1.000
    C101     C        0.38030    0.89670    0.93958    1.000
    C102     C        0.52680    0.03800    0.87282    1.000
    N1       N        0.71040    0.96600    0.92799    1.000
    N2       N        0.61680    0.77310    0.78228    1.000
    N3       N        0.57280    0.60850    0.62824    1.000
    N4       N        0.50420    0.48180    0.40315    1.000
    N5       N        0.25560    0.28960    0.26132    1.000
    N6       N        0.15630    0.38320    0.11561    1.000
    N7       N        0.03570    0.42720    0.96157    1.000
    N8       N        0.97760    0.49580    0.73648    1.000
    N9       N        0.03400    0.74440    0.59466    1.000
    N10      N        0.22690    0.84370    0.44895    1.000
    N11      N        0.39150    0.96430    0.29491    1.000
    N12      N        0.51820    0.02240    0.06982    1.000
    N13      N        0.74440    0.03400    0.07201    1.000
    N14      N        0.84370    0.22690    0.21772    1.000
    N15      N        0.96430    0.39150    0.37176    1.000
    N16      N        0.02240    0.51820    0.59685    1.000
    N17      N        0.96600    0.71040    0.73868    1.000
    N18      N        0.77310    0.61680    0.88439    1.000
    N19      N        0.60850    0.57280    0.03843    1.000
    N20      N        0.48180    0.50420    0.26352    1.000
    N21      N        0.28960    0.25560    0.40534    1.000
    N22      N        0.38320    0.15630    0.55105    1.000
    N23      N        0.42720    0.03570    0.70509    1.000
    N24      N        0.49580    0.97760    0.93018    1.000
    O1       O        0.74620    0.77410    0.70578    1.000
    O2       O        0.41490    0.60030    0.57535    1.000
    O3       O        0.02790    0.25380    0.03911    1.000
    O4       O        0.18540    0.58510    0.90868    1.000
    O5       O        0.22590    0.97210    0.37245    1.000
    O6       O        0.39970    0.81460    0.24202    1.000
    O7       O        0.97210    0.22590    0.29422    1.000
    O8       O        0.81460    0.39970    0.42465    1.000
    O9       O        0.77410    0.74620    0.96089    1.000
    O10      O        0.60030    0.41490    0.09132    1.000
    O11      O        0.25380    0.02790    0.62755    1.000
    O12      O        0.58510    0.18540    0.75798    1.000
