# CIF file generated by openbabel 3.1.0, see https://openbabel.org
data_I
_chemical_name_common 'image0'
_cell_length_a 10.334
_cell_length_b 15.9714
_cell_length_c 25.3074
_cell_angle_alpha 90
_cell_angle_beta 93.277
_cell_angle_gamma 90
_space_group_name_H-M_alt 'P 1'
_space_group_name_Hall 'P 1'
loop_
    _symmetry_equiv_pos_as_xyz
    x,y,z
loop_
    _atom_site_label
    _atom_site_type_symbol
    _atom_site_fract_x
    _atom_site_fract_y
    _atom_site_fract_z
    _atom_site_occupancy
    Cu1      Cu       0.76038    0.21429    0.83324    1.000
    N1       N        0.06880    0.99030    0.92362    1.000
    N2       N        0.16490    0.07100    0.02472    1.000
    C1       C        0.01010    0.94660    0.88207    1.000
    C2       C        0.08950    0.95510    0.83740    1.000
    H1       H        0.07200    0.93170    0.80320    1.000
    C3       C        0.19370    0.00250    0.85280    1.000
    H2       H        0.26220    0.01830    0.83140    1.000
    C4       C        0.18170    0.02480    0.90766    1.000
    C5       C        0.27060    0.07180    0.93985    1.000
    C6       C        0.26130    0.09380    0.99313    1.000
    C7       C        0.34970    0.14770    0.02420    1.000
    H3       H        0.42630    0.17280    0.01230    1.000
    C8       C        0.30420    0.15590    0.07240    1.000
    H4       H        0.34260    0.18780    0.10090    1.000
    C9       C        0.18650    0.10750    0.07346    1.000
    C10      C        0.89370    0.90100    0.88350    1.000
    C11      C        0.85420    0.85470    0.83376    1.000
    C12      C        0.74010    0.87450    0.80421    1.000
    H5       H        0.68140    0.91460    0.81680    1.000
    C13      C        0.71420    0.83460    0.75630    1.000
    H6       H        0.63770    0.84960    0.73600    1.000
    N3       N        0.79110    0.77580    0.73701    1.000
    C14      C        0.89770    0.75350    0.76760    1.000
    H7       H        0.95110    0.70990    0.75560    1.000
    C15      C        0.93190    0.79130    0.81540    1.000
    H8       H        0.00770    0.77420    0.83550    1.000
    C16      C        0.38740    0.10340    0.91350    1.000
    C17      C        0.51120    0.07310    0.92680    1.000
    H9       H        0.52320    0.02990    0.95240    1.000
    C18      C        0.61680    0.10580    0.90260    1.000
    H10      H        0.70050    0.08420    0.91230    1.000
    N4       N        0.60580    0.16720    0.86601    1.000
    C19      C        0.48620    0.19530    0.85320    1.000
    H11      H        0.47640    0.23810    0.82720    1.000
    C20      C        0.37650    0.16600    0.87540    1.000
    H12      H        0.29400    0.18850    0.86480    1.000
    N5       N        0.89370    0.27700    0.87743    1.000
    C21      C        0.99490    0.23580    0.89910    1.000
    H13      H        0.99690    0.17660    0.89570    1.000
    C22      C        0.09780    0.27530    0.92630    1.000
    H14      H        0.16770    0.24320    0.94160    1.000
    C23      C        0.09840    0.36140    0.93100    1.000
    C24      C        0.99110    0.40460    0.91020    1.000
    H15      H        0.98620    0.46380    0.91360    1.000
    C25      C        0.89080    0.36030    0.88450    1.000
    H16      H        0.81650    0.39030    0.87120    1.000
    C26      C        0.21640    0.40580    0.95380    1.000
    C27      C        0.23770    0.40660    0.00860    1.000
    C28      C        0.15600    0.37050    0.04660    1.000
    H17      H        0.07520    0.34350    0.03890    1.000
    C29      C        0.21480    0.38200    0.09560    1.000
    H18      H        0.18330    0.36350    0.12820    1.000
    C30      C        0.33380    0.42730    0.08910    1.000
    C31      C        0.42440    0.45320    0.12940    1.000
    C32      C        0.54130    0.49730    0.12260    1.000
    C33      C        0.62740    0.53000    0.16400    1.000
    H19      H        0.61670    0.52540    0.20090    1.000
    C34      C        0.72600    0.56830    0.14120    1.000
    H20      H        0.79770    0.59520    0.15920    1.000
    C35      C        0.29610    0.43860    0.91490    1.000
    C36      C        0.40010    0.42860    0.18511    1.000
    C37      C        0.28940    0.45360    0.20970    1.000
    H21      H        0.22670    0.48820    0.19150    1.000
    C38      C        0.27210    0.42760    0.26080    1.000
    H22      H        0.19670    0.44620    0.27710    1.000
    N6       N        0.35410    0.37810    0.28868    1.000
    C39      C        0.46250    0.35570    0.26550    1.000
    H23      H        0.52460    0.32230    0.28500    1.000
    C40      C        0.48770    0.37940    0.21420    1.000
    H24      H        0.56530    0.36170    0.19920    1.000
    N7       N        0.41060    0.48150    0.92477    1.000
    N8       N        0.34430    0.44130    0.03592    1.000
    Cu2      Cu       0.73962    0.71429    0.66676    1.000
    N9       N        0.43120    0.49030    0.57638    1.000
    N10      N        0.33510    0.57100    0.47528    1.000
    C41      C        0.48990    0.44660    0.61793    1.000
    C42      C        0.41050    0.45510    0.66260    1.000
    H25      H        0.42800    0.43170    0.69680    1.000
    C43      C        0.30630    0.50250    0.64720    1.000
    H26      H        0.23780    0.51830    0.66860    1.000
    C44      C        0.31830    0.52480    0.59234    1.000
    C45      C        0.22940    0.57180    0.56015    1.000
    C46      C        0.23870    0.59380    0.50687    1.000
    C47      C        0.15030    0.64770    0.47580    1.000
    H27      H        0.07370    0.67280    0.48770    1.000
    C48      C        0.19580    0.65590    0.42760    1.000
    H28      H        0.15740    0.68780    0.39910    1.000
    C49      C        0.31350    0.60750    0.42654    1.000
    C50      C        0.60630    0.40100    0.61650    1.000
    C51      C        0.64580    0.35470    0.66624    1.000
    C52      C        0.75990    0.37450    0.69579    1.000
    H29      H        0.81860    0.41460    0.68320    1.000
    C53      C        0.78580    0.33460    0.74370    1.000
    H30      H        0.86230    0.34960    0.76400    1.000
    N11      N        0.70890    0.27580    0.76299    1.000
    C54      C        0.60230    0.25350    0.73240    1.000
    H31      H        0.54890    0.20990    0.74440    1.000
    C55      C        0.56810    0.29130    0.68460    1.000
    H32      H        0.49230    0.27420    0.66450    1.000
    C56      C        0.11260    0.60340    0.58650    1.000
    C57      C        0.98880    0.57310    0.57320    1.000
    H33      H        0.97680    0.52990    0.54760    1.000
    C58      C        0.88320    0.60580    0.59740    1.000
    H34      H        0.79950    0.58420    0.58770    1.000
    N12      N        0.89420    0.66720    0.63399    1.000
    C59      C        0.01380    0.69530    0.64680    1.000
    H35      H        0.02360    0.73810    0.67280    1.000
    C60      C        0.12350    0.66600    0.62460    1.000
    H36      H        0.20600    0.68850    0.63520    1.000
    N13      N        0.60630    0.77700    0.62257    1.000
    C61      C        0.50510    0.73580    0.60090    1.000
    H37      H        0.50310    0.67660    0.60430    1.000
    C62      C        0.40220    0.77530    0.57370    1.000
    H38      H        0.33230    0.74320    0.55840    1.000
    C63      C        0.40160    0.86140    0.56900    1.000
    C64      C        0.50890    0.90460    0.58980    1.000
    H39      H        0.51380    0.96380    0.58640    1.000
    C65      C        0.60920    0.86030    0.61550    1.000
    H40      H        0.68350    0.89030    0.62880    1.000
    C66      C        0.28360    0.90580    0.54620    1.000
    C67      C        0.26230    0.90660    0.49140    1.000
    C68      C        0.34400    0.87050    0.45340    1.000
    H41      H        0.42480    0.84350    0.46110    1.000
    C69      C        0.28520    0.88200    0.40440    1.000
    H42      H        0.31670    0.86350    0.37180    1.000
    C70      C        0.16620    0.92730    0.41090    1.000
    C71      C        0.07560    0.95320    0.37060    1.000
    C72      C        0.95870    0.99730    0.37740    1.000
    C73      C        0.87260    0.03000    0.33600    1.000
    H43      H        0.88330    0.02540    0.29910    1.000
    C74      C        0.77400    0.06830    0.35880    1.000
    H44      H        0.70230    0.09520    0.34080    1.000
    C75      C        0.20390    0.93860    0.58510    1.000
    C76      C        0.09990    0.92860    0.31489    1.000
    C77      C        0.21060    0.95360    0.29030    1.000
    H45      H        0.27330    0.98820    0.30850    1.000
    C78      C        0.22790    0.92760    0.23920    1.000
    H46      H        0.30330    0.94620    0.22290    1.000
    N14      N        0.14590    0.87810    0.21132    1.000
    C79      C        0.03750    0.85570    0.23450    1.000
    H47      H        0.97540    0.82230    0.21500    1.000
    C80      C        0.01230    0.87940    0.28580    1.000
    H48      H        0.93470    0.86170    0.30080    1.000
    N15      N        0.08940    0.98150    0.57523    1.000
    N16      N        0.15570    0.94130    0.46408    1.000
    Cu3      Cu       0.23962    0.78571    0.16676    1.000
    N17      N        0.93120    0.00970    0.07638    1.000
    N18      N        0.83510    0.92900    0.97528    1.000
    C81      C        0.98990    0.05340    0.11793    1.000
    C82      C        0.91050    0.04490    0.16260    1.000
    H49      H        0.92800    0.06830    0.19680    1.000
    C83      C        0.80630    0.99750    0.14720    1.000
    H50      H        0.73780    0.98170    0.16860    1.000
    C84      C        0.81830    0.97520    0.09234    1.000
    C85      C        0.72940    0.92820    0.06015    1.000
    C86      C        0.73870    0.90620    0.00687    1.000
    C87      C        0.65030    0.85230    0.97580    1.000
    H51      H        0.57370    0.82720    0.98770    1.000
    C88      C        0.69580    0.84410    0.92760    1.000
    H52      H        0.65740    0.81220    0.89910    1.000
    C89      C        0.81350    0.89250    0.92654    1.000
    C90      C        0.10630    0.09900    0.11650    1.000
    C91      C        0.14580    0.14530    0.16624    1.000
    C92      C        0.25990    0.12550    0.19579    1.000
    H53      H        0.31860    0.08540    0.18320    1.000
    C93      C        0.28580    0.16540    0.24370    1.000
    H54      H        0.36230    0.15040    0.26400    1.000
    N19      N        0.20890    0.22420    0.26299    1.000
    C94      C        0.10230    0.24650    0.23240    1.000
    H55      H        0.04890    0.29010    0.24440    1.000
    C95      C        0.06810    0.20870    0.18460    1.000
    H56      H        0.99230    0.22580    0.16450    1.000
    C96      C        0.61260    0.89660    0.08650    1.000
    C97      C        0.48880    0.92690    0.07320    1.000
    H57      H        0.47680    0.97010    0.04760    1.000
    C98      C        0.38320    0.89420    0.09740    1.000
    H58      H        0.29950    0.91580    0.08770    1.000
    N20      N        0.39420    0.83280    0.13399    1.000
    C99      C        0.51380    0.80470    0.14680    1.000
    H59      H        0.52360    0.76190    0.17280    1.000
    C100     C        0.62350    0.83400    0.12460    1.000
    H60      H        0.70600    0.81150    0.13520    1.000
    N21      N        0.10630    0.72300    0.12257    1.000
    C101     C        0.00510    0.76420    0.10090    1.000
    H61      H        0.00310    0.82340    0.10430    1.000
    C102     C        0.90220    0.72470    0.07370    1.000
    H62      H        0.83230    0.75680    0.05840    1.000
    C103     C        0.90160    0.63860    0.06900    1.000
    C104     C        0.00890    0.59540    0.08980    1.000
    H63      H        0.01380    0.53620    0.08640    1.000
    C105     C        0.10920    0.63970    0.11550    1.000
    H64      H        0.18350    0.60970    0.12880    1.000
    C106     C        0.78360    0.59420    0.04620    1.000
    C107     C        0.76230    0.59340    0.99140    1.000
    C108     C        0.84400    0.62950    0.95340    1.000
    H65      H        0.92480    0.65650    0.96110    1.000
    C109     C        0.78520    0.61800    0.90440    1.000
    H66      H        0.81670    0.63650    0.87180    1.000
    C110     C        0.66620    0.57270    0.91090    1.000
    C111     C        0.57560    0.54680    0.87060    1.000
    C112     C        0.45870    0.50270    0.87740    1.000
    C113     C        0.37260    0.47000    0.83600    1.000
    H67      H        0.38330    0.47460    0.79910    1.000
    C114     C        0.27400    0.43170    0.85880    1.000
    H68      H        0.20230    0.40480    0.84080    1.000
    C115     C        0.70390    0.56140    0.08510    1.000
    C116     C        0.59990    0.57140    0.81489    1.000
    C117     C        0.71060    0.54640    0.79030    1.000
    H69      H        0.77330    0.51180    0.80850    1.000
    C118     C        0.72790    0.57240    0.73920    1.000
    H70      H        0.80330    0.55380    0.72290    1.000
    N22      N        0.64590    0.62190    0.71132    1.000
    C119     C        0.53750    0.64430    0.73450    1.000
    H71      H        0.47540    0.67770    0.71500    1.000
    C120     C        0.51230    0.62060    0.78580    1.000
    H72      H        0.43470    0.63830    0.80080    1.000
    N23      N        0.58940    0.51850    0.07523    1.000
    N24      N        0.65570    0.55870    0.96408    1.000
    Cu4      Cu       0.26038    0.28571    0.33324    1.000
    N25      N        0.56880    0.50970    0.42362    1.000
    N26      N        0.66490    0.42900    0.52472    1.000
    C121     C        0.51010    0.55340    0.38207    1.000
    C122     C        0.58950    0.54490    0.33740    1.000
    H73      H        0.57200    0.56830    0.30320    1.000
    C123     C        0.69370    0.49750    0.35280    1.000
    H74      H        0.76220    0.48170    0.33140    1.000
    C124     C        0.68170    0.47520    0.40766    1.000
    C125     C        0.77060    0.42820    0.43985    1.000
    C126     C        0.76130    0.40620    0.49313    1.000
    C127     C        0.84970    0.35230    0.52420    1.000
    H75      H        0.92630    0.32720    0.51230    1.000
    C128     C        0.80420    0.34410    0.57240    1.000
    H76      H        0.84260    0.31220    0.60090    1.000
    C129     C        0.68650    0.39250    0.57346    1.000
    C130     C        0.39370    0.59900    0.38350    1.000
    C131     C        0.35420    0.64530    0.33376    1.000
    C132     C        0.24010    0.62550    0.30421    1.000
    H77      H        0.18140    0.58540    0.31680    1.000
    C133     C        0.21420    0.66540    0.25630    1.000
    H78      H        0.13770    0.65040    0.23600    1.000
    N27      N        0.29110    0.72420    0.23701    1.000
    C134     C        0.39770    0.74650    0.26760    1.000
    H79      H        0.45110    0.79010    0.25560    1.000
    C135     C        0.43190    0.70870    0.31540    1.000
    H80      H        0.50770    0.72580    0.33550    1.000
    C136     C        0.88740    0.39660    0.41350    1.000
    C137     C        0.01120    0.42690    0.42680    1.000
    H81      H        0.02320    0.47010    0.45240    1.000
    C138     C        0.11680    0.39420    0.40260    1.000
    H82      H        0.20050    0.41580    0.41230    1.000
    N28      N        0.10580    0.33280    0.36601    1.000
    C139     C        0.98620    0.30470    0.35320    1.000
    H83      H        0.97640    0.26190    0.32720    1.000
    C140     C        0.87650    0.33400    0.37540    1.000
    H84      H        0.79400    0.31150    0.36480    1.000
    N29      N        0.39370    0.22300    0.37743    1.000
    C141     C        0.49490    0.26420    0.39910    1.000
    H85      H        0.49690    0.32340    0.39570    1.000
    C142     C        0.59780    0.22470    0.42630    1.000
    H86      H        0.66770    0.25680    0.44160    1.000
    C143     C        0.59840    0.13860    0.43100    1.000
    C144     C        0.49110    0.09540    0.41020    1.000
    H87      H        0.48620    0.03620    0.41360    1.000
    C145     C        0.39080    0.13970    0.38450    1.000
    H88      H        0.31650    0.10970    0.37120    1.000
    C146     C        0.71640    0.09420    0.45380    1.000
    C147     C        0.73770    0.09340    0.50860    1.000
    C148     C        0.65600    0.12950    0.54660    1.000
    H89      H        0.57520    0.15650    0.53890    1.000
    C149     C        0.71480    0.11800    0.59560    1.000
    H90      H        0.68330    0.13650    0.62820    1.000
    C150     C        0.83380    0.07270    0.58910    1.000
    C151     C        0.92440    0.04680    0.62940    1.000
    C152     C        0.04130    0.00270    0.62260    1.000
    C153     C        0.12740    0.97000    0.66400    1.000
    H91      H        0.11670    0.97460    0.70090    1.000
    C154     C        0.22600    0.93170    0.64120    1.000
    H92      H        0.29770    0.90480    0.65920    1.000
    C155     C        0.79610    0.06140    0.41490    1.000
    C156     C        0.90010    0.07140    0.68511    1.000
    C157     C        0.78940    0.04640    0.70970    1.000
    H93      H        0.72670    0.01180    0.69150    1.000
    C158     C        0.77210    0.07240    0.76080    1.000
    H94      H        0.69670    0.05380    0.77710    1.000
    N30      N        0.85410    0.12190    0.78868    1.000
    C159     C        0.96250    0.14430    0.76550    1.000
    H95      H        0.02460    0.17770    0.78500    1.000
    C160     C        0.98770    0.12060    0.71420    1.000
    H96      H        0.06530    0.13830    0.69920    1.000
    N31      N        0.91060    0.01850    0.42477    1.000
    N32      N        0.84430    0.05870    0.53592    1.000
    Sn1      Sn       0.00000    0.00000    0.00000    1.000
    Sn2      Sn       0.50000    0.50000    0.50000    1.000
    Sn3      Sn       0.50000    0.50000    0.00000    1.000
    Sn4      Sn       0.00000    0.00000    0.50000    1.000
