# CIF file generated by openbabel 3.1.0, see https://openbabel.org
data_I
_chemical_name_common 'GOGWAB_clean'
_cell_length_a 7.5571
_cell_length_b 12.571
_cell_length_c 12.571
_cell_angle_alpha 84.8165
_cell_angle_beta 72.5078
_cell_angle_gamma 72.5078
_space_group_name_H-M_alt 'P 1'
_space_group_name_Hall 'P 1'
loop_
    _symmetry_equiv_pos_as_xyz
    x,y,z
loop_
    _atom_site_label
    _atom_site_type_symbol
    _atom_site_fract_x
    _atom_site_fract_y
    _atom_site_fract_z
    _atom_site_occupancy
    Zn1      Zn       0.50000    0.00000    0.00000    1.000
    Zn2      Zn       0.75000    0.50000    0.50000    1.000
    H1       H        0.62500    0.85200    0.64800    1.000
    H2       H        0.12500    0.14800    0.35200    1.000
    H3       H        0.72700    0.64800    0.14800    1.000
    H4       H        0.52300    0.35200    0.85200    1.000
    C1       C        0.61130    0.82370    0.80890    1.000
    C2       C        0.24390    0.17630    0.19110    1.000
    C3       C        0.57980    0.80890    0.17630    1.000
    C4       C        0.56500    0.19110    0.82370    1.000
    C5       C        0.00610    0.30890    0.32370    1.000
    C6       C        0.63870    0.69110    0.67630    1.000
    C7       C        0.68500    0.67630    0.30890    1.000
    C8       C        0.67020    0.32370    0.69110    1.000
    C9       C        0.62500    0.79720    0.70280    1.000
    C10      C        0.62500    0.63200    0.86800    1.000
    C11      C        0.12500    0.20280    0.29720    1.000
    C12      C        0.12500    0.36800    0.13200    1.000
    C13      C        0.67220    0.70280    0.20280    1.000
    C14      C        0.50700    0.86800    0.36800    1.000
    C15      C        0.57780    0.29720    0.79720    1.000
    C16      C        0.74300    0.13200    0.63200    1.000
    S1       S        0.62500    0.53406    0.96594    1.000
    S2       S        0.12500    0.46594    0.03406    1.000
    S3       S        0.40906    0.96594    0.46594    1.000
    S4       S        0.84094    0.03406    0.53406    1.000
    N1       N        0.61380    0.73750    0.89010    1.000
    N2       N        0.24140    0.26250    0.10990    1.000
    N3       N        0.49610    0.89010    0.26250    1.000
    N4       N        0.64870    0.10990    0.73750    1.000
    N5       N        0.00860    0.39010    0.23750    1.000
    N6       N        0.63620    0.60990    0.76250    1.000
    N7       N        0.60130    0.76250    0.39010    1.000
    N8       N        0.75390    0.23750    0.60990    1.000
    O1       O        0.60332    0.91619    0.84397    1.000
    O2       O        0.36348    0.08381    0.15603    1.000
    O3       O        0.55271    0.84397    0.08381    1.000
    O4       O        0.48049    0.15603    0.91619    1.000
    O5       O        0.88652    0.34397    0.41619    1.000
    O6       O        0.64668    0.65603    0.58381    1.000
    O7       O        0.76951    0.58381    0.34397    1.000
    O8       O        0.69729    0.41619    0.65603    1.000
