# CIF file generated by openbabel 3.1.0, see https://openbabel.org
data_I
_chemical_name_common 'OKIWEL01_charged'
_cell_length_a 15.877
_cell_length_b 15.877
_cell_length_c 21.806
_cell_angle_alpha 90
_cell_angle_beta 90
_cell_angle_gamma 90
_space_group_name_H-M_alt 'P 1'
_space_group_name_Hall 'P 1'
loop_
    _symmetry_equiv_pos_as_xyz
    x,y,z
loop_
    _atom_site_label
    _atom_site_type_symbol
    _atom_site_fract_x
    _atom_site_fract_y
    _atom_site_fract_z
    _atom_site_occupancy
    Cd1      Cd       0.55781    0.44219    0.25000    1.000
    Cd2      Cd       0.44219    0.55781    0.75000    1.000
    Cd3      Cd       0.05781    0.05781    0.50000    1.000
    Cd4      Cd       0.94219    0.94219    0.00000    1.000
    H1       H        0.03660    0.11090    0.35060    1.000
    H2       H        0.08410    0.21460    0.28450    1.000
    H3       H        0.28440    0.24340    0.39680    1.000
    H4       H        0.22780    0.14110    0.45940    1.000
    H5       H        0.15340    0.29480    0.22020    1.000
    H6       H        0.20250    0.41040    0.16460    1.000
    H7       H        0.30430    0.50340    0.20860    1.000
    H8       H        0.29760    0.36520    0.36470    1.000
    H9       H        0.54510    0.61940    0.46090    1.000
    H10      H        0.56340    0.72850    0.53040    1.000
    H11      H        0.46440    0.83360    0.53860    1.000
    H12      H        0.32510    0.72470    0.40380    1.000
    H13      H        0.34410    0.89180    0.56510    1.000
    H14      H        0.23460    0.98940    0.57410    1.000
    H15      H        0.16100    0.94310    0.40600    1.000
    H16      H        0.26670    0.84850    0.39120    1.000
    H17      H        0.24160    0.52720    0.39120    1.000
    H18      H        0.24070    0.60410    0.35230    1.000
    H19      H        0.96340    0.88910    0.85060    1.000
    H20      H        0.91590    0.78540    0.78450    1.000
    H21      H        0.71560    0.75660    0.89680    1.000
    H22      H        0.77220    0.85890    0.95940    1.000
    H23      H        0.84660    0.70520    0.72020    1.000
    H24      H        0.79750    0.58960    0.66460    1.000
    H25      H        0.69570    0.49660    0.70860    1.000
    H26      H        0.70240    0.63480    0.86470    1.000
    H27      H        0.45490    0.38060    0.96090    1.000
    H28      H        0.43660    0.27150    0.03040    1.000
    H29      H        0.53560    0.16640    0.03860    1.000
    H30      H        0.67490    0.27530    0.90380    1.000
    H31      H        0.65590    0.10820    0.06510    1.000
    H32      H        0.76540    0.01060    0.07410    1.000
    H33      H        0.83900    0.05690    0.90600    1.000
    H34      H        0.73330    0.15150    0.89120    1.000
    H35      H        0.75840    0.47280    0.89120    1.000
    H36      H        0.75930    0.39590    0.85230    1.000
    H37      H        0.38910    0.53660    0.60060    1.000
    H38      H        0.28540    0.58410    0.53450    1.000
    H39      H        0.25660    0.78440    0.64680    1.000
    H40      H        0.35890    0.72780    0.70940    1.000
    H41      H        0.20520    0.65340    0.47020    1.000
    H42      H        0.08960    0.70250    0.41460    1.000
    H43      H        0.99660    0.80430    0.45860    1.000
    H44      H        0.13480    0.79760    0.61470    1.000
    H45      H        0.88060    0.04510    0.71090    1.000
    H46      H        0.77150    0.06340    0.78040    1.000
    H47      H        0.66640    0.96440    0.78860    1.000
    H48      H        0.77530    0.82510    0.65380    1.000
    H49      H        0.60820    0.84410    0.81510    1.000
    H50      H        0.51060    0.73460    0.82410    1.000
    H51      H        0.55690    0.66100    0.65600    1.000
    H52      H        0.65150    0.76670    0.64120    1.000
    H53      H        0.97280    0.74160    0.64120    1.000
    H54      H        0.89590    0.74070    0.60230    1.000
    H55      H        0.61090    0.46340    0.10060    1.000
    H56      H        0.71460    0.41590    0.03450    1.000
    H57      H        0.74340    0.21560    0.14680    1.000
    H58      H        0.64110    0.27220    0.20940    1.000
    H59      H        0.79480    0.34660    0.97020    1.000
    H60      H        0.91040    0.29750    0.91460    1.000
    H61      H        0.00340    0.19570    0.95860    1.000
    H62      H        0.86520    0.20240    0.11470    1.000
    H63      H        0.11940    0.95490    0.21090    1.000
    H64      H        0.22850    0.93660    0.28040    1.000
    H65      H        0.33360    0.03560    0.28860    1.000
    H66      H        0.22470    0.17490    0.15380    1.000
    H67      H        0.39180    0.15590    0.31510    1.000
    H68      H        0.48940    0.26540    0.32410    1.000
    H69      H        0.44310    0.33900    0.15600    1.000
    H70      H        0.34850    0.23330    0.14120    1.000
    H71      H        0.02720    0.25840    0.14120    1.000
    H72      H        0.10410    0.25930    0.10230    1.000
    H73      H        0.46340    0.61090    0.89940    1.000
    H74      H        0.41590    0.71460    0.96550    1.000
    H75      H        0.21560    0.74340    0.85320    1.000
    H76      H        0.27220    0.64110    0.79060    1.000
    H77      H        0.34660    0.79480    0.02980    1.000
    H78      H        0.29750    0.91040    0.08540    1.000
    H79      H        0.19570    0.00340    0.04140    1.000
    H80      H        0.20240    0.86520    0.88530    1.000
    H81      H        0.95490    0.11940    0.78910    1.000
    H82      H        0.93660    0.22850    0.71960    1.000
    H83      H        0.03560    0.33360    0.71140    1.000
    H84      H        0.17490    0.22470    0.84620    1.000
    H85      H        0.15590    0.39180    0.68490    1.000
    H86      H        0.26540    0.48940    0.67590    1.000
    H87      H        0.33900    0.44310    0.84400    1.000
    H88      H        0.23330    0.34850    0.85880    1.000
    H89      H        0.25840    0.02720    0.85880    1.000
    H90      H        0.25930    0.10410    0.89770    1.000
    H91      H        0.53660    0.38910    0.39940    1.000
    H92      H        0.58410    0.28540    0.46550    1.000
    H93      H        0.78440    0.25660    0.35320    1.000
    H94      H        0.72780    0.35890    0.29060    1.000
    H95      H        0.65340    0.20520    0.52980    1.000
    H96      H        0.70250    0.08960    0.58540    1.000
    H97      H        0.80430    0.99660    0.54140    1.000
    H98      H        0.79760    0.13480    0.38530    1.000
    H99      H        0.04510    0.88060    0.28910    1.000
    H100     H        0.06340    0.77150    0.21960    1.000
    H101     H        0.96440    0.66640    0.21140    1.000
    H102     H        0.82510    0.77530    0.34620    1.000
    H103     H        0.84410    0.60820    0.18490    1.000
    H104     H        0.73460    0.51060    0.17590    1.000
    H105     H        0.66100    0.55690    0.34400    1.000
    H106     H        0.76670    0.65150    0.35880    1.000
    H107     H        0.74160    0.97280    0.35880    1.000
    H108     H        0.74070    0.89590    0.39770    1.000
    H109     H        0.11090    0.03660    0.64940    1.000
    H110     H        0.21460    0.08410    0.71550    1.000
    H111     H        0.24340    0.28440    0.60320    1.000
    H112     H        0.14110    0.22780    0.54060    1.000
    H113     H        0.29480    0.15340    0.77980    1.000
    H114     H        0.41040    0.20250    0.83540    1.000
    H115     H        0.50340    0.30430    0.79140    1.000
    H116     H        0.36520    0.29760    0.63530    1.000
    H117     H        0.61940    0.54510    0.53910    1.000
    H118     H        0.72850    0.56340    0.46960    1.000
    H119     H        0.83360    0.46440    0.46140    1.000
    H120     H        0.72470    0.32510    0.59620    1.000
    H121     H        0.89180    0.34410    0.43490    1.000
    H122     H        0.98940    0.23460    0.42590    1.000
    H123     H        0.94310    0.16100    0.59400    1.000
    H124     H        0.84850    0.26670    0.60880    1.000
    H125     H        0.52720    0.24160    0.60880    1.000
    H126     H        0.60410    0.24070    0.64770    1.000
    H127     H        0.88910    0.96340    0.14940    1.000
    H128     H        0.78540    0.91590    0.21550    1.000
    H129     H        0.75660    0.71560    0.10320    1.000
    H130     H        0.85890    0.77220    0.04060    1.000
    H131     H        0.70520    0.84660    0.27980    1.000
    H132     H        0.58960    0.79750    0.33540    1.000
    H133     H        0.49660    0.69570    0.29140    1.000
    H134     H        0.63480    0.70240    0.13530    1.000
    H135     H        0.38060    0.45490    0.03910    1.000
    H136     H        0.27150    0.43660    0.96960    1.000
    H137     H        0.16640    0.53560    0.96140    1.000
    H138     H        0.27530    0.67490    0.09620    1.000
    H139     H        0.10820    0.65590    0.93490    1.000
    H140     H        0.01060    0.76540    0.92590    1.000
    H141     H        0.05690    0.83900    0.09400    1.000
    H142     H        0.15150    0.73330    0.10880    1.000
    H143     H        0.47280    0.75840    0.10880    1.000
    H144     H        0.39590    0.75930    0.14770    1.000
    C1       C        0.08650    0.14070    0.36110    1.000
    C2       C        0.11440    0.20250    0.32100    1.000
    C3       C        0.18860    0.24700    0.33540    1.000
    C4       C        0.23120    0.21960    0.38680    1.000
    C5       C        0.19720    0.15770    0.42390    1.000
    C6       C        0.21820    0.31980    0.29800    1.000
    C7       C        0.19230    0.33280    0.23850    1.000
    C8       C        0.22250    0.40090    0.20510    1.000
    C9       C        0.28310    0.45670    0.23110    1.000
    C10      C        0.30990    0.44030    0.29020    1.000
    C11      C        0.27850    0.37420    0.32390    1.000
    C12      C        0.37180    0.49670    0.31950    1.000
    C13      C        0.42380    0.59160    0.38200    1.000
    C14      C        0.43240    0.66150    0.42620    1.000
    C15      C        0.50420    0.66290    0.46390    1.000
    C16      C        0.51490    0.72730    0.50490    1.000
    C17      C        0.45610    0.78990    0.50940    1.000
    C18      C        0.38350    0.79190    0.47210    1.000
    C19      C        0.37300    0.72560    0.42990    1.000
    C20      C        0.31800    0.85800    0.47760    1.000
    C21      C        0.30710    0.90120    0.53150    1.000
    C22      C        0.24080    0.95950    0.53660    1.000
    C23      C        0.19860    0.93270    0.43910    1.000
    C24      C        0.26120    0.87600    0.42970    1.000
    C25      C        0.91350    0.85930    0.86110    1.000
    C26      C        0.88560    0.79750    0.82100    1.000
    C27      C        0.81140    0.75300    0.83540    1.000
    C28      C        0.76880    0.78040    0.88680    1.000
    C29      C        0.80280    0.84230    0.92390    1.000
    C30      C        0.78180    0.68020    0.79800    1.000
    C31      C        0.80770    0.66720    0.73850    1.000
    C32      C        0.77750    0.59910    0.70510    1.000
    C33      C        0.71690    0.54330    0.73110    1.000
    C34      C        0.69010    0.55970    0.79020    1.000
    C35      C        0.72150    0.62580    0.82390    1.000
    C36      C        0.62820    0.50330    0.81950    1.000
    C37      C        0.57620    0.40840    0.88200    1.000
    C38      C        0.56760    0.33850    0.92620    1.000
    C39      C        0.49580    0.33710    0.96390    1.000
    C40      C        0.48510    0.27270    0.00490    1.000
    C41      C        0.54390    0.21010    0.00940    1.000
    C42      C        0.61650    0.20810    0.97210    1.000
    C43      C        0.62700    0.27440    0.92990    1.000
    C44      C        0.68200    0.14200    0.97760    1.000
    C45      C        0.69290    0.09880    0.03150    1.000
    C46      C        0.75920    0.04050    0.03660    1.000
    C47      C        0.80140    0.06730    0.93910    1.000
    C48      C        0.73880    0.12400    0.92970    1.000
    C49      C        0.35930    0.58650    0.61110    1.000
    C50      C        0.29750    0.61440    0.57100    1.000
    C51      C        0.25300    0.68860    0.58540    1.000
    C52      C        0.28040    0.73120    0.63680    1.000
    C53      C        0.34230    0.69720    0.67390    1.000
    C54      C        0.18020    0.71820    0.54800    1.000
    C55      C        0.16720    0.69230    0.48850    1.000
    C56      C        0.09910    0.72250    0.45510    1.000
    C57      C        0.04330    0.78310    0.48110    1.000
    C58      C        0.05970    0.80990    0.54020    1.000
    C59      C        0.12580    0.77850    0.57390    1.000
    C60      C        0.00330    0.87180    0.56950    1.000
    C61      C        0.90840    0.92380    0.63200    1.000
    C62      C        0.83850    0.93240    0.67620    1.000
    C63      C        0.83710    0.00420    0.71390    1.000
    C64      C        0.77270    0.01490    0.75490    1.000
    C65      C        0.71010    0.95610    0.75940    1.000
    C66      C        0.70810    0.88350    0.72210    1.000
    C67      C        0.77440    0.87300    0.67990    1.000
    C68      C        0.64200    0.81800    0.72760    1.000
    C69      C        0.59880    0.80710    0.78150    1.000
    C70      C        0.54050    0.74080    0.78660    1.000
    C71      C        0.56730    0.69860    0.68910    1.000
    C72      C        0.62400    0.76120    0.67970    1.000
    C73      C        0.64070    0.41350    0.11110    1.000
    C74      C        0.70250    0.38560    0.07100    1.000
    C75      C        0.74700    0.31140    0.08540    1.000
    C76      C        0.71960    0.26880    0.13680    1.000
    C77      C        0.65770    0.30280    0.17390    1.000
    C78      C        0.81980    0.28180    0.04800    1.000
    C79      C        0.83280    0.30770    0.98850    1.000
    C80      C        0.90090    0.27750    0.95510    1.000
    C81      C        0.95670    0.21690    0.98110    1.000
    C82      C        0.94030    0.19010    0.04020    1.000
    C83      C        0.87420    0.22150    0.07390    1.000
    C84      C        0.99670    0.12820    0.06950    1.000
    C85      C        0.09160    0.07620    0.13200    1.000
    C86      C        0.16150    0.06760    0.17620    1.000
    C87      C        0.16290    0.99580    0.21390    1.000
    C88      C        0.22730    0.98510    0.25490    1.000
    C89      C        0.28990    0.04390    0.25940    1.000
    C90      C        0.29190    0.11650    0.22210    1.000
    C91      C        0.22560    0.12700    0.17990    1.000
    C92      C        0.35800    0.18200    0.22760    1.000
    C93      C        0.40120    0.19290    0.28150    1.000
    C94      C        0.45950    0.25920    0.28660    1.000
    C95      C        0.43270    0.30140    0.18910    1.000
    C96      C        0.37600    0.23880    0.17970    1.000
    C97      C        0.41350    0.64070    0.88890    1.000
    C98      C        0.38560    0.70250    0.92900    1.000
    C99      C        0.31140    0.74700    0.91460    1.000
    C100     C        0.26880    0.71960    0.86320    1.000
    C101     C        0.30280    0.65770    0.82610    1.000
    C102     C        0.28180    0.81980    0.95200    1.000
    C103     C        0.30770    0.83280    0.01150    1.000
    C104     C        0.27750    0.90090    0.04490    1.000
    C105     C        0.21690    0.95670    0.01890    1.000
    C106     C        0.19010    0.94030    0.95980    1.000
    C107     C        0.22150    0.87420    0.92610    1.000
    C108     C        0.12820    0.99670    0.93050    1.000
    C109     C        0.07620    0.09160    0.86800    1.000
    C110     C        0.06760    0.16150    0.82380    1.000
    C111     C        0.99580    0.16290    0.78610    1.000
    C112     C        0.98510    0.22730    0.74510    1.000
    C113     C        0.04390    0.28990    0.74060    1.000
    C114     C        0.11650    0.29190    0.77790    1.000
    C115     C        0.12700    0.22560    0.82010    1.000
    C116     C        0.18200    0.35800    0.77240    1.000
    C117     C        0.19290    0.40120    0.71850    1.000
    C118     C        0.25920    0.45950    0.71340    1.000
    C119     C        0.30140    0.43270    0.81090    1.000
    C120     C        0.23880    0.37600    0.82030    1.000
    C121     C        0.58650    0.35930    0.38890    1.000
    C122     C        0.61440    0.29750    0.42900    1.000
    C123     C        0.68860    0.25300    0.41460    1.000
    C124     C        0.73120    0.28040    0.36320    1.000
    C125     C        0.69720    0.34230    0.32610    1.000
    C126     C        0.71820    0.18020    0.45200    1.000
    C127     C        0.69230    0.16720    0.51150    1.000
    C128     C        0.72250    0.09910    0.54490    1.000
    C129     C        0.78310    0.04330    0.51890    1.000
    C130     C        0.80990    0.05970    0.45980    1.000
    C131     C        0.77850    0.12580    0.42610    1.000
    C132     C        0.87180    0.00330    0.43050    1.000
    C133     C        0.92380    0.90840    0.36800    1.000
    C134     C        0.93240    0.83850    0.32380    1.000
    C135     C        0.00420    0.83710    0.28610    1.000
    C136     C        0.01490    0.77270    0.24510    1.000
    C137     C        0.95610    0.71010    0.24060    1.000
    C138     C        0.88350    0.70810    0.27790    1.000
    C139     C        0.87300    0.77440    0.32010    1.000
    C140     C        0.81800    0.64200    0.27240    1.000
    C141     C        0.80710    0.59880    0.21850    1.000
    C142     C        0.74080    0.54050    0.21340    1.000
    C143     C        0.69860    0.56730    0.31090    1.000
    C144     C        0.76120    0.62400    0.32030    1.000
    C145     C        0.14070    0.08650    0.63890    1.000
    C146     C        0.20250    0.11440    0.67900    1.000
    C147     C        0.24700    0.18860    0.66460    1.000
    C148     C        0.21960    0.23120    0.61320    1.000
    C149     C        0.15770    0.19720    0.57610    1.000
    C150     C        0.31980    0.21820    0.70200    1.000
    C151     C        0.33280    0.19230    0.76150    1.000
    C152     C        0.40090    0.22250    0.79490    1.000
    C153     C        0.45670    0.28310    0.76890    1.000
    C154     C        0.44030    0.30990    0.70980    1.000
    C155     C        0.37420    0.27850    0.67610    1.000
    C156     C        0.49670    0.37180    0.68050    1.000
    C157     C        0.59160    0.42380    0.61800    1.000
    C158     C        0.66150    0.43240    0.57380    1.000
    C159     C        0.66290    0.50420    0.53610    1.000
    C160     C        0.72730    0.51490    0.49510    1.000
    C161     C        0.78990    0.45610    0.49060    1.000
    C162     C        0.79190    0.38350    0.52790    1.000
    C163     C        0.72560    0.37300    0.57010    1.000
    C164     C        0.85800    0.31800    0.52240    1.000
    C165     C        0.90120    0.30710    0.46850    1.000
    C166     C        0.95950    0.24080    0.46340    1.000
    C167     C        0.93270    0.19860    0.56090    1.000
    C168     C        0.87600    0.26120    0.57030    1.000
    C169     C        0.85930    0.91350    0.13890    1.000
    C170     C        0.79750    0.88560    0.17900    1.000
    C171     C        0.75300    0.81140    0.16460    1.000
    C172     C        0.78040    0.76880    0.11320    1.000
    C173     C        0.84230    0.80280    0.07610    1.000
    C174     C        0.68020    0.78180    0.20200    1.000
    C175     C        0.66720    0.80770    0.26150    1.000
    C176     C        0.59910    0.77750    0.29490    1.000
    C177     C        0.54330    0.71690    0.26890    1.000
    C178     C        0.55970    0.69010    0.20980    1.000
    C179     C        0.62580    0.72150    0.17610    1.000
    C180     C        0.50330    0.62820    0.18050    1.000
    C181     C        0.40840    0.57620    0.11800    1.000
    C182     C        0.33850    0.56760    0.07380    1.000
    C183     C        0.33710    0.49580    0.03610    1.000
    C184     C        0.27270    0.48510    0.99510    1.000
    C185     C        0.21010    0.54390    0.99060    1.000
    C186     C        0.20810    0.61650    0.02790    1.000
    C187     C        0.27440    0.62700    0.07010    1.000
    C188     C        0.14200    0.68200    0.02240    1.000
    C189     C        0.09880    0.69290    0.96850    1.000
    C190     C        0.04050    0.75920    0.96340    1.000
    C191     C        0.06730    0.80140    0.06090    1.000
    C192     C        0.12400    0.73880    0.07030    1.000
    N1       N        0.12460    0.12040    0.41260    1.000
    N2       N        0.45510    0.49450    0.31570    1.000
    N3       N        0.48780    0.55470    0.35490    1.000
    N4       N        0.35060    0.55700    0.36070    1.000
    N5       N        0.26920    0.57590    0.38220    1.000
    N6       N        0.18570    0.97510    0.49130    1.000
    N7       N        0.87540    0.87960    0.91260    1.000
    N8       N        0.54490    0.50550    0.81570    1.000
    N9       N        0.51220    0.44530    0.85490    1.000
    N10      N        0.64940    0.44300    0.86070    1.000
    N11      N        0.73080    0.42410    0.88220    1.000
    N12      N        0.81430    0.02490    0.99130    1.000
    N13      N        0.37960    0.62460    0.66260    1.000
    N14      N        0.00550    0.95510    0.56570    1.000
    N15      N        0.94530    0.98780    0.60490    1.000
    N16      N        0.94300    0.85060    0.61070    1.000
    N17      N        0.92410    0.76920    0.63220    1.000
    N18      N        0.52490    0.68570    0.74130    1.000
    N19      N        0.62040    0.37540    0.16260    1.000
    N20      N        0.99450    0.04490    0.06570    1.000
    N21      N        0.05470    0.01220    0.10490    1.000
    N22      N        0.05700    0.14940    0.11070    1.000
    N23      N        0.07590    0.23080    0.13220    1.000
    N24      N        0.47510    0.31430    0.24130    1.000
    N25      N        0.37540    0.62040    0.83740    1.000
    N26      N        0.04490    0.99450    0.93430    1.000
    N27      N        0.01220    0.05470    0.89510    1.000
    N28      N        0.14940    0.05700    0.88930    1.000
    N29      N        0.23080    0.07590    0.86780    1.000
    N30      N        0.31430    0.47510    0.75870    1.000
    N31      N        0.62460    0.37960    0.33740    1.000
    N32      N        0.95510    0.00550    0.43430    1.000
    N33      N        0.98780    0.94530    0.39510    1.000
    N34      N        0.85060    0.94300    0.38930    1.000
    N35      N        0.76920    0.92410    0.36780    1.000
    N36      N        0.68570    0.52490    0.25870    1.000
    N37      N        0.12040    0.12460    0.58740    1.000
    N38      N        0.49450    0.45510    0.68430    1.000
    N39      N        0.55470    0.48780    0.64510    1.000
    N40      N        0.55700    0.35060    0.63930    1.000
    N41      N        0.57590    0.26920    0.61780    1.000
    N42      N        0.97510    0.18570    0.50870    1.000
    N43      N        0.87960    0.87540    0.08740    1.000
    N44      N        0.50550    0.54490    0.18430    1.000
    N45      N        0.44530    0.51220    0.14510    1.000
    N46      N        0.44300    0.64940    0.13930    1.000
    N47      N        0.42410    0.73080    0.11780    1.000
    N48      N        0.02490    0.81430    0.00870    1.000
    Cl1      Cl       0.23178    0.23178    0.00000    1.000
    O1       O        0.26010    0.27240    0.05230    1.000
    O2       O        0.27580    0.15760    0.00800    1.000
    O3       O        0.27240    0.26010    0.94770    1.000
    O4       O        0.15760    0.27580    0.99200    1.000
    Cl2      Cl       0.62116    0.62116    0.00000    1.000
    O5       O        0.64300    0.55270    0.97000    1.000
    O6       O        0.66770    0.59640    0.05400    1.000
    O7       O        0.55270    0.64300    0.03000    1.000
    O8       O        0.59640    0.66770    0.94600    1.000
    Cl3      Cl       0.76822    0.76822    0.50000    1.000
    O9       O        0.73990    0.72760    0.55230    1.000
    O10      O        0.72420    0.84240    0.50800    1.000
    O11      O        0.72760    0.73990    0.44770    1.000
    O12      O        0.84240    0.72420    0.49200    1.000
    Cl4      Cl       0.37884    0.37884    0.50000    1.000
    O13      O        0.35700    0.44730    0.47000    1.000
    O14      O        0.33230    0.40360    0.55400    1.000
    O15      O        0.44730    0.35700    0.53000    1.000
    O16      O        0.40360    0.33230    0.44600    1.000
    Cl5      Cl       0.26822    0.73178    0.25000    1.000
    O17      O        0.22760    0.76010    0.30230    1.000
    O18      O        0.34240    0.77580    0.25800    1.000
    O19      O        0.23990    0.77240    0.19770    1.000
    O20      O        0.22420    0.65760    0.24200    1.000
    Cl6      Cl       0.87884    0.12116    0.25000    1.000
    O21      O        0.94730    0.14300    0.22000    1.000
    O22      O        0.90360    0.16770    0.30400    1.000
    O23      O        0.85700    0.05270    0.28000    1.000
    O24      O        0.83230    0.09640    0.19600    1.000
    Cl7      Cl       0.73178    0.26822    0.75000    1.000
    O25      O        0.77240    0.23990    0.80230    1.000
    O26      O        0.65760    0.22420    0.75800    1.000
    O27      O        0.76010    0.22760    0.69770    1.000
    O28      O        0.77580    0.34240    0.74200    1.000
    Cl8      Cl       0.12116    0.87884    0.75000    1.000
    O29      O        0.05270    0.85700    0.72000    1.000
    O30      O        0.09640    0.83230    0.80400    1.000
    O31      O        0.14300    0.94730    0.78000    1.000
    O32      O        0.16770    0.90360    0.69600    1.000
