# CIF file generated by openbabel 3.1.0, see https://openbabel.org
data_I
_chemical_name_common 'WOGHEG_clean'
_cell_length_a 7.9273
_cell_length_b 10.556
_cell_length_c 13.155
_cell_angle_alpha 107.26
_cell_angle_beta 107.06
_cell_angle_gamma 90.65
_space_group_name_H-M_alt 'P 1'
_space_group_name_Hall 'P 1'
loop_
    _symmetry_equiv_pos_as_xyz
    x,y,z
loop_
    _atom_site_label
    _atom_site_type_symbol
    _atom_site_fract_x
    _atom_site_fract_y
    _atom_site_fract_z
    _atom_site_occupancy
    Zn1      Zn       0.27383    0.95463    0.70183    1.000
    Zn2      Zn       0.61427    0.12923    0.82206    1.000
    H1       H        0.55020    0.15860    0.14060    1.000
    H2       H        0.56600    0.15180    0.32260    1.000
    H3       H        0.23810    0.84150    0.17610    1.000
    H4       H        0.21960    0.84940    0.00580    1.000
    H5       H        0.30670    0.93280    0.38190    1.000
    H6       H        0.57970    0.14040    0.46090    1.000
    H7       H        0.24030    0.45210    0.80280    1.000
    H8       H        0.91810    0.28590    0.72880    1.000
    H9       H        0.12520    0.62730    0.81150    1.000
    H10      H        0.95060    0.80760    0.81830    1.000
    H11      H        0.50700    0.57560    0.69020    1.000
    H12      H        0.66490    0.39620    0.69720    1.000
    H13      H        0.71280    0.39530    0.99630    1.000
    H14      H        0.96430    0.53000    0.12470    1.000
    H15      H        0.26840    0.24640    0.02620    1.000
    H16      H        0.01700    0.11160    0.89790    1.000
    H17      H        0.62060    0.82140    0.50730    1.000
    H18      H        0.87230    0.94490    0.64510    1.000
    H19      H        0.17890    0.70140    0.49930    1.000
    H20      H        0.92720    0.57800    0.36150    1.000
    C1       C        0.39300    0.01700    0.94360    1.000
    C2       C        0.39100    0.00600    0.04680    1.000
    C3       C        0.48200    0.08800    0.14330    1.000
    C4       C        0.49200    0.08700    0.26020    1.000
    C5       C        0.39200    0.98900    0.27450    1.000
    C6       C        0.30700    0.91320    0.17620    1.000
    C7       C        0.29600    0.91490    0.06670    1.000
    C8       C        0.38800    0.99100    0.37500    1.000
    C9       C        0.50200    0.07900    0.46730    1.000
    C10      C        0.50100    0.07600    0.58950    1.000
    C11      C        0.27900    0.24940    0.77950    1.000
    C12      C        0.17500    0.36920    0.78000    1.000
    C13      C        0.98800    0.36600    0.74890    1.000
    C14      C        0.90900    0.48500    0.74860    1.000
    C15      C        0.00200    0.61320    0.78700    1.000
    C16      C        0.89100    0.72200    0.78500    1.000
    C17      C        0.71500    0.71410    0.74130    1.000
    C18      C        0.62000    0.83200    0.74720    1.000
    C19      C        0.63030    0.58840    0.71270    1.000
    C20      C        0.72800    0.47920    0.71720    1.000
    C21      C        0.82420    0.36540    0.00230    1.000
    C22      C        0.97480    0.44610    0.07920    1.000
    C23      C        0.14130    0.40150    0.08820    1.000
    C24      C        0.15710    0.27620    0.02020    1.000
    C25      C        0.00640    0.19550    0.94340    1.000
    C26      C        0.30480    0.48270    0.17160    1.000
    C27      C        0.61110    0.63160    0.33070    1.000
    C28      C        0.74900    0.68740    0.42070    1.000
    C29      C        0.73250    0.79740    0.50570    1.000
    C30      C        0.88330    0.87130    0.58830    1.000
    C31      C        0.06700    0.72550    0.50090    1.000
    C32      C        0.91620    0.65150    0.41830    1.000
    N1       N        0.84000    0.24010    0.93440    1.000
    N2       N        0.46730    0.43120    0.18150    1.000
    N3       N        0.62050    0.50560    0.26110    1.000
    N4       N        0.44860    0.68310    0.32070    1.000
    N5       N        0.29540    0.60870    0.24110    1.000
    N6       N        0.05060    0.83540    0.58590    1.000
    O1       O        0.52400    0.08120    0.94010    1.000
    O2       O        0.26000    0.95010    0.85260    1.000
    O3       O        0.61900    0.13760    0.66770    1.000
    O4       O        0.37300    0.99400    0.58410    1.000
    O5       O        0.44200    0.27340    0.81850    1.000
    O6       O        0.17720    0.13560    0.73600    1.000
    O7       O        0.70100    0.94610    0.79330    1.000
    O8       O        0.44980    0.81760    0.70470    1.000
