# CIF file generated by openbabel 3.1.0, see https://openbabel.org
data_I
_chemical_name_common 'image0'
_cell_length_a 13.392
_cell_length_b 13.872
_cell_length_c 22.211
_cell_angle_alpha 74.977
_cell_angle_beta 89.016
_cell_angle_gamma 76.276
_space_group_name_H-M_alt 'P 1'
_space_group_name_Hall 'P 1'
loop_
    _symmetry_equiv_pos_as_xyz
    x,y,z
loop_
    _atom_site_label
    _atom_site_type_symbol
    _atom_site_fract_x
    _atom_site_fract_y
    _atom_site_fract_z
    _atom_site_occupancy
    Pr1      Pr       0.78266    0.37302    0.74185    1.000
    O1       O        0.63670    0.51770    0.69650    1.000
    C1       C        0.60200    0.60170    0.70570    1.000
    Pr2      Pr       0.81226    0.69439    0.72399    1.000
    O2       O        0.64360    0.66640    0.71360    1.000
    C2       C        0.48480    0.63350    0.70750    1.000
    Pr3      Pr       0.86854    0.09806    0.67511    1.000
    O3       O        0.90280    0.39030    0.82330    1.000
    C3       C        0.42310    0.56200    0.70620    1.000
    H1       H        0.45640    0.49400    0.70500    1.000
    O4       O        0.83500    0.55950    0.81240    1.000
    C4       C        0.31630    0.58930    0.70660    1.000
    H2       H        0.27760    0.54160    0.70330    1.000
    O5       O        0.63600    0.28910    0.74150    1.000
    C5       C        0.26580    0.68780    0.71200    1.000
    O6       O        0.84650    0.52170    0.68370    1.000
    C6       C        0.15800    0.71570    0.71610    1.000
    H3       H        0.11800    0.66880    0.71350    1.000
    O7       O        0.95620    0.29280    0.72120    1.000
    C7       C        0.11010    0.81270    0.72400    1.000
    O8       O        0.01450    0.16600    0.67280    1.000
    C8       C        0.16770    0.88550    0.72580    1.000
    H4       H        0.13350    0.95280    0.72780    1.000
    O9       O        0.81830    0.21740    0.82580    1.000
    C9       C        0.27360    0.85810    0.72470    1.000
    H5       H        0.31240    0.90500    0.72950    1.000
    C10      C        0.32500    0.76140    0.71640    1.000
    O10      O        0.89590    0.08270    0.78110    1.000
    C11      C        0.43430    0.73130    0.71320    1.000
    H6       H        0.47400    0.77900    0.71490    1.000
    O11      O        0.98010    0.58430    0.69920    1.000
    C12      C        0.89080    0.47100    0.84160    1.000
    O12      O        0.77560    0.33000    0.64120    1.000
    C13      C        0.94090    0.46510    0.90120    1.000
    O13      O        0.80280    0.22790    0.57790    1.000
    C14      C        0.92140    0.55080    0.92530    1.000
    H7       H        0.87700    0.61380    0.90290    1.000
    O14      O        0.71710    0.86860    0.68170    1.000
    C15      C        0.96780    0.54290    0.98250    1.000
    O15      O        0.69860    0.14970    0.71090    1.000
    C16      C        0.05100    0.36770    0.99210    1.000
    H8       H        0.09450    0.30460    0.01500    1.000
    O16      O        0.77080    0.00690    0.63020    1.000
    C17      C        0.00730    0.37340    0.93650    1.000
    H9       H        0.02160    0.31430    0.92080    1.000
    O17      O        0.94970    0.76440    0.73970    1.000
    C18      C        0.62750    0.22640    0.72870    1.000
    O18      O        0.95320    0.92560    0.73190    1.000
    C19      C        0.52020    0.20260    0.71870    1.000
    C20      C        0.43960    0.26780    0.73950    1.000
    H10      H        0.45220    0.31820    0.75830    1.000
    C21      C        0.33380    0.25690    0.73160    1.000
    C22      C        0.25140    0.32350    0.75090    1.000
    H11      H        0.26330    0.37380    0.77000    1.000
    C23      C        0.15250    0.31470    0.74170    1.000
    H12      H        0.09580    0.35860    0.75510    1.000
    C24      C        0.13560    0.24020    0.71210    1.000
    C25      C        0.21750    0.17420    0.69340    1.000
    H13      H        0.20520    0.12360    0.67460    1.000
    C26      C        0.31890    0.18200    0.70220    1.000
    C27      C        0.40520    0.11530    0.68480    1.000
    H14      H        0.39480    0.06220    0.66760    1.000
    C28      C        0.50150    0.12530    0.69200    1.000
    H15      H        0.55780    0.08020    0.67910    1.000
    C29      C        0.93480    0.53720    0.66960    1.000
    C30      C        0.97930    0.51570    0.61000    1.000
    C31      C        0.07920    0.53120    0.59360    1.000
    H16      H        0.12140    0.54560    0.62250    1.000
    C32      C        0.11370    0.52500    0.53570    1.000
    H17      H        0.18130    0.53170    0.52530    1.000
    C33      C        0.95100    0.49100    0.50830    1.000
    C34      C        0.91930    0.49540    0.56820    1.000
    H18      H        0.85370    0.48380    0.58010    1.000
    C35      C        0.02420    0.23770    0.69340    1.000
    C36      C        0.87420    0.13370    0.82750    1.000
    C37      C        0.92250    0.06490    0.88980    1.000
    C38      C        0.93560    0.11020    0.93750    1.000
    H19      H        0.91100    0.18250    0.93030    1.000
    C39      C        0.98220    0.05460    0.99400    1.000
    C40      C        0.00690    0.90160    0.95770    1.000
    H20      H        0.03140    0.82920    0.96500    1.000
    C41      C        0.96270    0.95700    0.89980    1.000
    H21      H        0.95910    0.92430    0.86760    1.000
    C42      C        0.75270    0.30910    0.59190    1.000
    C43      C        0.66330    0.37450    0.55110    1.000
    C44      C        0.59420    0.45260    0.56710    1.000
    H22      H        0.60500    0.46660    0.60580    1.000
    C45      C        0.50790    0.51280    0.52870    1.000
    C46      C        0.56660    0.40840    0.45470    1.000
    H23      H        0.55890    0.39450    0.41550    1.000
    C47      C        0.64830    0.35280    0.49340    1.000
    H24      H        0.69610    0.29870    0.48200    1.000
    C48      C        0.71260    0.94660    0.63640    1.000
    C49      C        0.63030    0.97420    0.58600    1.000
    C50      C        0.62740    0.08180    0.53940    1.000
    H25      H        0.67090    0.12450    0.54450    1.000
    C51      C        0.55720    0.10780    0.49140    1.000
    H26      H        0.54510    0.17500    0.46410    1.000
    C52      C        0.49470    0.95510    0.51910    1.000
    C53      C        0.56910    0.91790    0.57960    1.000
    H27      H        0.56870    0.85600    0.61030    1.000
    C54      C        0.98660    0.83900    0.72670    1.000
    Pr4      Pr       0.21734    0.62698    0.25815    1.000
    O19      O        0.36330    0.48230    0.30350    1.000
    C55      C        0.39800    0.39830    0.29430    1.000
    Pr5      Pr       0.18774    0.30561    0.27601    1.000
    O20      O        0.35640    0.33360    0.28640    1.000
    C56      C        0.51520    0.36650    0.29250    1.000
    Pr6      Pr       0.13146    0.90194    0.32489    1.000
    O21      O        0.09720    0.60970    0.17670    1.000
    C57      C        0.57690    0.43800    0.29380    1.000
    H28      H        0.54360    0.50600    0.29500    1.000
    O22      O        0.16500    0.44050    0.18760    1.000
    C58      C        0.68370    0.41070    0.29340    1.000
    H29      H        0.72240    0.45840    0.29670    1.000
    O23      O        0.36400    0.71090    0.25850    1.000
    C59      C        0.73420    0.31220    0.28800    1.000
    O24      O        0.15350    0.47830    0.31630    1.000
    C60      C        0.84200    0.28430    0.28390    1.000
    H30      H        0.88200    0.33120    0.28650    1.000
    O25      O        0.04380    0.70720    0.27880    1.000
    C61      C        0.88990    0.18730    0.27600    1.000
    O26      O        0.98550    0.83400    0.32720    1.000
    C62      C        0.83230    0.11450    0.27420    1.000
    H31      H        0.86650    0.04720    0.27220    1.000
    O27      O        0.18170    0.78260    0.17420    1.000
    C63      C        0.72640    0.14190    0.27530    1.000
    H32      H        0.68760    0.09500    0.27050    1.000
    C64      C        0.67500    0.23860    0.28360    1.000
    O28      O        0.10410    0.91730    0.21890    1.000
    C65      C        0.56570    0.26870    0.28680    1.000
    H33      H        0.52600    0.22100    0.28510    1.000
    O29      O        0.01990    0.41570    0.30080    1.000
    C66      C        0.10920    0.52900    0.15840    1.000
    O30      O        0.22440    0.67000    0.35880    1.000
    C67      C        0.05910    0.53490    0.09880    1.000
    O31      O        0.19720    0.77210    0.42210    1.000
    C68      C        0.07860    0.44920    0.07470    1.000
    H34      H        0.12300    0.38620    0.09710    1.000
    O32      O        0.28290    0.13140    0.31830    1.000
    C69      C        0.03220    0.45710    0.01750    1.000
    O33      O        0.30140    0.85030    0.28910    1.000
    C70      C        0.94900    0.63230    0.00790    1.000
    H35      H        0.90550    0.69540    0.98500    1.000
    O34      O        0.22920    0.99310    0.36980    1.000
    C71      C        0.99270    0.62660    0.06350    1.000
    H36      H        0.97840    0.68570    0.07920    1.000
    O35      O        0.05030    0.23560    0.26030    1.000
    C72      C        0.37250    0.77360    0.27130    1.000
    O36      O        0.04680    0.07440    0.26810    1.000
    C73      C        0.47980    0.79740    0.28130    1.000
    C74      C        0.56040    0.73220    0.26050    1.000
    H37      H        0.54780    0.68180    0.24170    1.000
    C75      C        0.66620    0.74310    0.26840    1.000
    C76      C        0.74860    0.67650    0.24910    1.000
    H38      H        0.73670    0.62620    0.23000    1.000
    C77      C        0.84750    0.68530    0.25830    1.000
    H39      H        0.90420    0.64140    0.24490    1.000
    C78      C        0.86440    0.75980    0.28790    1.000
    C79      C        0.78250    0.82580    0.30660    1.000
    H40      H        0.79480    0.87640    0.32540    1.000
    C80      C        0.68110    0.81800    0.29780    1.000
    C81      C        0.59480    0.88470    0.31520    1.000
    H41      H        0.60520    0.93780    0.33240    1.000
    C82      C        0.49850    0.87470    0.30800    1.000
    H42      H        0.44220    0.91980    0.32090    1.000
    C83      C        0.06520    0.46280    0.33040    1.000
    C84      C        0.02070    0.48430    0.39000    1.000
    C85      C        0.92080    0.46880    0.40640    1.000
    H43      H        0.87860    0.45440    0.37750    1.000
    C86      C        0.88630    0.47500    0.46430    1.000
    H44      H        0.81870    0.46830    0.47470    1.000
    C87      C        0.04900    0.50900    0.49170    1.000
    C88      C        0.08070    0.50460    0.43180    1.000
    H45      H        0.14630    0.51620    0.41990    1.000
    C89      C        0.97580    0.76230    0.30660    1.000
    C90      C        0.12580    0.86630    0.17250    1.000
    C91      C        0.07750    0.93510    0.11020    1.000
    C92      C        0.06440    0.88980    0.06250    1.000
    H46      H        0.08900    0.81750    0.06970    1.000
    C93      C        0.01780    0.94540    0.00600    1.000
    C94      C        0.99310    0.09840    0.04230    1.000
    H47      H        0.96860    0.17080    0.03500    1.000
    C95      C        0.03730    0.04300    0.10020    1.000
    H48      H        0.04090    0.07570    0.13240    1.000
    C96      C        0.24730    0.69090    0.40810    1.000
    C97      C        0.33670    0.62550    0.44890    1.000
    C98      C        0.40580    0.54740    0.43290    1.000
    H49      H        0.39500    0.53340    0.39420    1.000
    C99      C        0.49210    0.48720    0.47130    1.000
    C100     C        0.43340    0.59160    0.54530    1.000
    H50      H        0.44110    0.60550    0.58450    1.000
    C101     C        0.35170    0.64720    0.50660    1.000
    H51      H        0.30390    0.70130    0.51800    1.000
    C102     C        0.28740    0.05340    0.36360    1.000
    C103     C        0.36970    0.02580    0.41400    1.000
    C104     C        0.37260    0.91820    0.46060    1.000
    H52      H        0.32910    0.87550    0.45550    1.000
    C105     C        0.44280    0.89220    0.50860    1.000
    H53      H        0.45490    0.82500    0.53590    1.000
    C106     C        0.50530    0.04490    0.48090    1.000
    C107     C        0.43090    0.08210    0.42040    1.000
    H54      H        0.43130    0.14400    0.38970    1.000
    C108     C        0.01340    0.16100    0.27330    1.000
