# CIF file generated by openbabel 3.1.0, see https://openbabel.org
data_I
_chemical_name_common 'image0'
_cell_length_a 11.2208
_cell_length_b 11.7575
_cell_length_c 16.2014
_cell_angle_alpha 90
_cell_angle_beta 129.17
_cell_angle_gamma 90
_space_group_name_H-M_alt 'P 1'
_space_group_name_Hall 'P 1'
loop_
    _symmetry_equiv_pos_as_xyz
    x,y,z
loop_
    _atom_site_label
    _atom_site_type_symbol
    _atom_site_fract_x
    _atom_site_fract_y
    _atom_site_fract_z
    _atom_site_occupancy
    C1       C        0.14139    0.89786    0.76811    1.000
    C2       C        0.08262    0.80964    0.69543    1.000
    H1       H        0.97710    0.78960    0.65350    1.000
    C3       C        0.17933    0.75022    0.68409    1.000
    C4       C        0.11735    0.65260    0.60829    1.000
    C5       C        0.33324    0.78111    0.74456    1.000
    H2       H        0.39880    0.74110    0.73640    1.000
    C6       C        0.39137    0.87056    0.81701    1.000
    C7       C        0.29608    0.92870    0.82979    1.000
    H3       H        0.33580    0.98880    0.88000    1.000
    C8       C        0.55629    0.90426    0.88083    1.000
    O1       O        0.06257    0.92962    0.88580    1.000
    O2       O        0.86543    0.94593    0.69587    1.000
    O3       O        0.06270    0.09171    0.79465    1.000
    O4       O        0.21356    0.57973    0.62538    1.000
    O5       O        0.97495    0.64972    0.53341    1.000
    O6       O        0.64157    0.85206    0.86877    1.000
    O7       O        0.60741    0.98591    0.94572    1.000
    S1       S        0.02166    0.97378    0.78514    1.000
    Zn1      Zn       0.17658    0.02717    0.01763    1.000
    C9       C        0.85861    0.39786    0.73189    1.000
    C10      C        0.91738    0.30964    0.80457    1.000
    H4       H        0.02290    0.28960    0.84650    1.000
    C11      C        0.82067    0.25022    0.81591    1.000
    C12      C        0.88265    0.15260    0.89171    1.000
    C13      C        0.66676    0.28111    0.75544    1.000
    H5       H        0.60120    0.24110    0.76360    1.000
    C14      C        0.60863    0.37056    0.68299    1.000
    C15      C        0.70392    0.42870    0.67021    1.000
    H6       H        0.66420    0.48880    0.62000    1.000
    C16      C        0.44371    0.40426    0.61917    1.000
    O8       O        0.93743    0.42962    0.61420    1.000
    O9       O        0.13457    0.44593    0.80413    1.000
    O10      O        0.93730    0.59171    0.70535    1.000
    O11      O        0.78644    0.07973    0.87462    1.000
    O12      O        0.02505    0.14972    0.96659    1.000
    O13      O        0.35843    0.35206    0.63123    1.000
    O14      O        0.39259    0.48591    0.55428    1.000
    S2       S        0.97834    0.47378    0.71486    1.000
    Zn2      Zn       0.82342    0.52717    0.48237    1.000
    C17      C        0.85861    0.10214    0.23189    1.000
    C18      C        0.91738    0.19036    0.30457    1.000
    H7       H        0.02290    0.21040    0.34650    1.000
    C19      C        0.82067    0.24978    0.31591    1.000
    C20      C        0.88265    0.34740    0.39171    1.000
    C21      C        0.66676    0.21889    0.25544    1.000
    H8       H        0.60120    0.25890    0.26360    1.000
    C22      C        0.60863    0.12944    0.18299    1.000
    C23      C        0.70392    0.07130    0.17021    1.000
    H9       H        0.66420    0.01120    0.12000    1.000
    C24      C        0.44371    0.09574    0.11917    1.000
    O15      O        0.93743    0.07038    0.11420    1.000
    O16      O        0.13457    0.05407    0.30413    1.000
    O17      O        0.93730    0.90829    0.20535    1.000
    O18      O        0.78644    0.42027    0.37462    1.000
    O19      O        0.02505    0.35028    0.46659    1.000
    O20      O        0.35843    0.14794    0.13123    1.000
    O21      O        0.39259    0.01409    0.05428    1.000
    S3       S        0.97834    0.02622    0.21486    1.000
    Zn3      Zn       0.82342    0.97283    0.98237    1.000
    C25      C        0.14139    0.60214    0.26811    1.000
    C26      C        0.08262    0.69036    0.19543    1.000
    H10      H        0.97710    0.71040    0.15350    1.000
    C27      C        0.17933    0.74978    0.18409    1.000
    C28      C        0.11735    0.84740    0.10829    1.000
    C29      C        0.33324    0.71889    0.24456    1.000
    H11      H        0.39880    0.75890    0.23640    1.000
    C30      C        0.39137    0.62944    0.31701    1.000
    C31      C        0.29608    0.57130    0.32979    1.000
    H12      H        0.33580    0.51120    0.38000    1.000
    C32      C        0.55629    0.59574    0.38083    1.000
    O22      O        0.06257    0.57038    0.38580    1.000
    O23      O        0.86543    0.55407    0.19587    1.000
    O24      O        0.06270    0.40829    0.29465    1.000
    O25      O        0.21356    0.92027    0.12538    1.000
    O26      O        0.97495    0.85028    0.03341    1.000
    O27      O        0.64157    0.64794    0.36877    1.000
    O28      O        0.60741    0.51409    0.44572    1.000
    S4       S        0.02166    0.52622    0.28514    1.000
    Zn4      Zn       0.17658    0.47283    0.51763    1.000
