# CIF file generated by openbabel 3.1.0, see https://openbabel.org
data_I
_chemical_name_common 'image0'
_cell_length_a 24.9856
_cell_length_b 21.9719
_cell_length_c 13.483
_cell_angle_alpha 90
_cell_angle_beta 90
_cell_angle_gamma 90
_space_group_name_H-M_alt 'P 1'
_space_group_name_Hall 'P 1'
loop_
    _symmetry_equiv_pos_as_xyz
    x,y,z
loop_
    _atom_site_label
    _atom_site_type_symbol
    _atom_site_fract_x
    _atom_site_fract_y
    _atom_site_fract_z
    _atom_site_occupancy
    Yb1      Yb       0.03149    0.32798    0.50086    1.000
    Ru1      Ru       0.87128    0.34820    0.77940    1.000
    Ru2      Ru       0.64833    0.29875    0.77681    1.000
    C1       C        0.75754    0.33610    0.83030    1.000
    C2       C        0.79650    0.39100    0.95400    1.000
    H1       H        0.82720    0.40760    0.98540    1.000
    C3       C        0.74698    0.39940    0.99620    1.000
    H2       H        0.74330    0.42210    0.05580    1.000
    C4       C        0.76376    0.30220    0.73620    1.000
    C5       C        0.81760    0.26710    0.61330    1.000
    H3       H        0.85200    0.26230    0.58430    1.000
    C6       C        0.77400    0.24170    0.56700    1.000
    H4       H        0.77800    0.21920    0.50720    1.000
    C7       C        0.84920    0.42540    0.70530    1.000
    C8       C        0.91770    0.39770    0.86720    1.000
    C9       C        0.93090    0.33590    0.68540    1.000
    C10      C        0.89770    0.27290    0.85110    1.000
    C11      C        0.70260    0.37450    0.95060    1.000
    H5       H        0.66810    0.38050    0.97870    1.000
    C12      C        0.72400    0.24960    0.60970    1.000
    H6       H        0.69320    0.23340    0.57780    1.000
    C13      C        0.63927    0.37890    0.70330    1.000
    C14      C        0.10140    0.24350    0.68200    1.000
    C15      C        0.91500    0.31950    0.36020    1.000
    C16      C        0.65560    0.21740    0.84940    1.000
    N1       N        0.80226    0.35954    0.86870    1.000
    N2       N        0.81306    0.29818    0.69770    1.000
    N3       N        0.83710    0.46930    0.66410    1.000
    N4       N        0.94328    0.42710    0.91970    1.000
    N5       N        0.96649    0.32860    0.63130    1.000
    N6       N        0.91630    0.23200    0.89100    1.000
    N7       N        0.70772    0.34151    0.86600    1.000
    N8       N        0.71855    0.27995    0.69600    1.000
    N9       N        0.63410    0.42490    0.66350    1.000
    N10      N        0.07640    0.27260    0.62560    1.000
    N11      N        0.95140    0.32930    0.40830    1.000
    N12      N        0.65810    0.17140    0.88810    1.000
    O1       O        0.10500    0.38340    0.54020    1.000
    O2       O        0.87540    0.13780    0.99620    1.000
    O3       O        0.00280    0.43030    0.52330    1.000
    O4       O        0.95920    0.08150    0.08790    1.000
    Yb2      Yb       0.03149    0.82798    0.00086    1.000
    Ru3      Ru       0.87128    0.84820    0.27940    1.000
    Ru4      Ru       0.64833    0.79875    0.27681    1.000
    C17      C        0.75754    0.83610    0.33030    1.000
    C18      C        0.79650    0.89100    0.45400    1.000
    H7       H        0.82720    0.90760    0.48540    1.000
    C19      C        0.74698    0.89940    0.49620    1.000
    H8       H        0.74330    0.92210    0.55580    1.000
    C20      C        0.76376    0.80220    0.23620    1.000
    C21      C        0.81760    0.76710    0.11330    1.000
    H9       H        0.85200    0.76230    0.08430    1.000
    C22      C        0.77400    0.74170    0.06700    1.000
    H10      H        0.77800    0.71920    0.00720    1.000
    C23      C        0.84920    0.92540    0.20530    1.000
    C24      C        0.91770    0.89770    0.36720    1.000
    C25      C        0.93090    0.83590    0.18540    1.000
    C26      C        0.89770    0.77290    0.35110    1.000
    C27      C        0.70260    0.87450    0.45060    1.000
    H11      H        0.66810    0.88050    0.47870    1.000
    C28      C        0.72400    0.74960    0.10970    1.000
    H12      H        0.69320    0.73340    0.07780    1.000
    C29      C        0.63927    0.87890    0.20330    1.000
    C30      C        0.10140    0.74350    0.18200    1.000
    C31      C        0.91500    0.81950    0.86020    1.000
    C32      C        0.65560    0.71740    0.34940    1.000
    N13      N        0.80226    0.85954    0.36870    1.000
    N14      N        0.81306    0.79818    0.19770    1.000
    N15      N        0.83710    0.96930    0.16410    1.000
    N16      N        0.94328    0.92710    0.41970    1.000
    N17      N        0.96649    0.82860    0.13130    1.000
    N18      N        0.91630    0.73200    0.39100    1.000
    N19      N        0.70772    0.84151    0.36600    1.000
    N20      N        0.71855    0.77995    0.19600    1.000
    N21      N        0.63410    0.92490    0.16350    1.000
    N22      N        0.07640    0.77260    0.12560    1.000
    N23      N        0.95140    0.82930    0.90830    1.000
    N24      N        0.65810    0.67140    0.38810    1.000
    O5       O        0.10500    0.88340    0.04020    1.000
    O6       O        0.87540    0.63780    0.49620    1.000
    O7       O        0.00280    0.93030    0.02330    1.000
    O8       O        0.95920    0.58150    0.58790    1.000
    Yb3      Yb       0.96851    0.67202    0.50086    1.000
    Ru5      Ru       0.12872    0.65180    0.77940    1.000
    Ru6      Ru       0.35167    0.70125    0.77681    1.000
    C33      C        0.24246    0.66390    0.83030    1.000
    C34      C        0.20350    0.60900    0.95400    1.000
    H13      H        0.17280    0.59240    0.98540    1.000
    C35      C        0.25302    0.60060    0.99620    1.000
    H14      H        0.25670    0.57790    0.05580    1.000
    C36      C        0.23624    0.69780    0.73620    1.000
    C37      C        0.18240    0.73290    0.61330    1.000
    H15      H        0.14800    0.73770    0.58430    1.000
    C38      C        0.22600    0.75830    0.56700    1.000
    H16      H        0.22200    0.78080    0.50720    1.000
    C39      C        0.15080    0.57460    0.70530    1.000
    C40      C        0.08230    0.60230    0.86720    1.000
    C41      C        0.06910    0.66410    0.68540    1.000
    C42      C        0.10230    0.72710    0.85110    1.000
    C43      C        0.29740    0.62550    0.95060    1.000
    H17      H        0.33190    0.61950    0.97870    1.000
    C44      C        0.27600    0.75040    0.60970    1.000
    H18      H        0.30680    0.76660    0.57780    1.000
    C45      C        0.36073    0.62110    0.70330    1.000
    C46      C        0.89860    0.75650    0.68200    1.000
    C47      C        0.08500    0.68050    0.36020    1.000
    C48      C        0.34440    0.78260    0.84940    1.000
    N25      N        0.19774    0.64046    0.86870    1.000
    N26      N        0.18694    0.70182    0.69770    1.000
    N27      N        0.16290    0.53070    0.66410    1.000
    N28      N        0.05672    0.57290    0.91970    1.000
    N29      N        0.03351    0.67140    0.63130    1.000
    N30      N        0.08370    0.76800    0.89100    1.000
    N31      N        0.29228    0.65849    0.86600    1.000
    N32      N        0.28145    0.72005    0.69600    1.000
    N33      N        0.36590    0.57510    0.66350    1.000
    N34      N        0.92360    0.72740    0.62560    1.000
    N35      N        0.04860    0.67070    0.40830    1.000
    N36      N        0.34190    0.82860    0.88810    1.000
    O9       O        0.89500    0.61660    0.54020    1.000
    O10      O        0.12460    0.86220    0.99620    1.000
    O11      O        0.99720    0.56970    0.52330    1.000
    O12      O        0.04080    0.91850    0.08790    1.000
    Yb4      Yb       0.96851    0.17202    0.00086    1.000
    Ru7      Ru       0.12872    0.15180    0.27940    1.000
    Ru8      Ru       0.35167    0.20125    0.27681    1.000
    C49      C        0.24246    0.16390    0.33030    1.000
    C50      C        0.20350    0.10900    0.45400    1.000
    H19      H        0.17280    0.09240    0.48540    1.000
    C51      C        0.25302    0.10060    0.49620    1.000
    H20      H        0.25670    0.07790    0.55580    1.000
    C52      C        0.23624    0.19780    0.23620    1.000
    C53      C        0.18240    0.23290    0.11330    1.000
    H21      H        0.14800    0.23770    0.08430    1.000
    C54      C        0.22600    0.25830    0.06700    1.000
    H22      H        0.22200    0.28080    0.00720    1.000
    C55      C        0.15080    0.07460    0.20530    1.000
    C56      C        0.08230    0.10230    0.36720    1.000
    C57      C        0.06910    0.16410    0.18540    1.000
    C58      C        0.10230    0.22710    0.35110    1.000
    C59      C        0.29740    0.12550    0.45060    1.000
    H23      H        0.33190    0.11950    0.47870    1.000
    C60      C        0.27600    0.25040    0.10970    1.000
    H24      H        0.30680    0.26660    0.07780    1.000
    C61      C        0.36073    0.12110    0.20330    1.000
    C62      C        0.89860    0.25650    0.18200    1.000
    C63      C        0.08500    0.18050    0.86020    1.000
    C64      C        0.34440    0.28260    0.34940    1.000
    N37      N        0.19774    0.14046    0.36870    1.000
    N38      N        0.18694    0.20182    0.19770    1.000
    N39      N        0.16290    0.03070    0.16410    1.000
    N40      N        0.05672    0.07290    0.41970    1.000
    N41      N        0.03351    0.17140    0.13130    1.000
    N42      N        0.08370    0.26800    0.39100    1.000
    N43      N        0.29228    0.15849    0.36600    1.000
    N44      N        0.28145    0.22005    0.19600    1.000
    N45      N        0.36590    0.07510    0.16350    1.000
    N46      N        0.92360    0.22740    0.12560    1.000
    N47      N        0.04860    0.17070    0.90830    1.000
    N48      N        0.34190    0.32860    0.38810    1.000
    O13      O        0.89500    0.11660    0.04020    1.000
    O14      O        0.12460    0.36220    0.49620    1.000
    O15      O        0.99720    0.06970    0.02330    1.000
    O16      O        0.04080    0.41850    0.58790    1.000
    Yb5      Yb       0.53149    0.17202    0.50086    1.000
    Ru9      Ru       0.37128    0.15180    0.77940    1.000
    Ru10     Ru       0.14833    0.20125    0.77681    1.000
    C65      C        0.25754    0.16390    0.83030    1.000
    C66      C        0.29650    0.10900    0.95400    1.000
    H25      H        0.32720    0.09240    0.98540    1.000
    C67      C        0.24698    0.10060    0.99620    1.000
    H26      H        0.24330    0.07790    0.05580    1.000
    C68      C        0.26376    0.19780    0.73620    1.000
    C69      C        0.31760    0.23290    0.61330    1.000
    H27      H        0.35200    0.23770    0.58430    1.000
    C70      C        0.27400    0.25830    0.56700    1.000
    H28      H        0.27800    0.28080    0.50720    1.000
    C71      C        0.34920    0.07460    0.70530    1.000
    C72      C        0.41770    0.10230    0.86720    1.000
    C73      C        0.43090    0.16410    0.68540    1.000
    C74      C        0.39770    0.22710    0.85110    1.000
    C75      C        0.20260    0.12550    0.95060    1.000
    H29      H        0.16810    0.11950    0.97870    1.000
    C76      C        0.22400    0.25040    0.60970    1.000
    H30      H        0.19320    0.26660    0.57780    1.000
    C77      C        0.13927    0.12110    0.70330    1.000
    C78      C        0.60140    0.25650    0.68200    1.000
    C79      C        0.41500    0.18050    0.36020    1.000
    C80      C        0.15560    0.28260    0.84940    1.000
    N49      N        0.30226    0.14046    0.86870    1.000
    N50      N        0.31306    0.20182    0.69770    1.000
    N51      N        0.33710    0.03070    0.66410    1.000
    N52      N        0.44328    0.07290    0.91970    1.000
    N53      N        0.46649    0.17140    0.63130    1.000
    N54      N        0.41630    0.26800    0.89100    1.000
    N55      N        0.20772    0.15849    0.86600    1.000
    N56      N        0.21855    0.22005    0.69600    1.000
    N57      N        0.13410    0.07510    0.66350    1.000
    N58      N        0.57640    0.22740    0.62560    1.000
    N59      N        0.45140    0.17070    0.40830    1.000
    N60      N        0.15810    0.32860    0.88810    1.000
    O17      O        0.60500    0.11660    0.54020    1.000
    O18      O        0.37540    0.36220    0.99620    1.000
    O19      O        0.50280    0.06970    0.52330    1.000
    O20      O        0.45920    0.41850    0.08790    1.000
    Yb6      Yb       0.53149    0.67202    0.00086    1.000
    Ru11     Ru       0.37128    0.65180    0.27940    1.000
    Ru12     Ru       0.14833    0.70125    0.27681    1.000
    C81      C        0.25754    0.66390    0.33030    1.000
    C82      C        0.29650    0.60900    0.45400    1.000
    H31      H        0.32720    0.59240    0.48540    1.000
    C83      C        0.24698    0.60060    0.49620    1.000
    H32      H        0.24330    0.57790    0.55580    1.000
    C84      C        0.26376    0.69780    0.23620    1.000
    C85      C        0.31760    0.73290    0.11330    1.000
    H33      H        0.35200    0.73770    0.08430    1.000
    C86      C        0.27400    0.75830    0.06700    1.000
    H34      H        0.27800    0.78080    0.00720    1.000
    C87      C        0.34920    0.57460    0.20530    1.000
    C88      C        0.41770    0.60230    0.36720    1.000
    C89      C        0.43090    0.66410    0.18540    1.000
    C90      C        0.39770    0.72710    0.35110    1.000
    C91      C        0.20260    0.62550    0.45060    1.000
    H35      H        0.16810    0.61950    0.47870    1.000
    C92      C        0.22400    0.75040    0.10970    1.000
    H36      H        0.19320    0.76660    0.07780    1.000
    C93      C        0.13927    0.62110    0.20330    1.000
    C94      C        0.60140    0.75650    0.18200    1.000
    C95      C        0.41500    0.68050    0.86020    1.000
    C96      C        0.15560    0.78260    0.34940    1.000
    N61      N        0.30226    0.64046    0.36870    1.000
    N62      N        0.31306    0.70182    0.19770    1.000
    N63      N        0.33710    0.53070    0.16410    1.000
    N64      N        0.44328    0.57290    0.41970    1.000
    N65      N        0.46649    0.67140    0.13130    1.000
    N66      N        0.41630    0.76800    0.39100    1.000
    N67      N        0.20772    0.65849    0.36600    1.000
    N68      N        0.21855    0.72005    0.19600    1.000
    N69      N        0.13410    0.57510    0.16350    1.000
    N70      N        0.57640    0.72740    0.12560    1.000
    N71      N        0.45140    0.67070    0.90830    1.000
    N72      N        0.15810    0.82860    0.38810    1.000
    O21      O        0.60500    0.61660    0.04020    1.000
    O22      O        0.37540    0.86220    0.49620    1.000
    O23      O        0.50280    0.56970    0.02330    1.000
    O24      O        0.45920    0.91850    0.58790    1.000
    Yb7      Yb       0.46851    0.82798    0.50086    1.000
    Ru13     Ru       0.62872    0.84820    0.77940    1.000
    Ru14     Ru       0.85167    0.79875    0.77681    1.000
    C97      C        0.74246    0.83610    0.83030    1.000
    C98      C        0.70350    0.89100    0.95400    1.000
    H37      H        0.67280    0.90760    0.98540    1.000
    C99      C        0.75302    0.89940    0.99620    1.000
    H38      H        0.75670    0.92210    0.05580    1.000
    C100     C        0.73624    0.80220    0.73620    1.000
    C101     C        0.68240    0.76710    0.61330    1.000
    H39      H        0.64800    0.76230    0.58430    1.000
    C102     C        0.72600    0.74170    0.56700    1.000
    H40      H        0.72200    0.71920    0.50720    1.000
    C103     C        0.65080    0.92540    0.70530    1.000
    C104     C        0.58230    0.89770    0.86720    1.000
    C105     C        0.56910    0.83590    0.68540    1.000
    C106     C        0.60230    0.77290    0.85110    1.000
    C107     C        0.79740    0.87450    0.95060    1.000
    H41      H        0.83190    0.88050    0.97870    1.000
    C108     C        0.77600    0.74960    0.60970    1.000
    H42      H        0.80680    0.73340    0.57780    1.000
    C109     C        0.86073    0.87890    0.70330    1.000
    C110     C        0.39860    0.74350    0.68200    1.000
    C111     C        0.58500    0.81950    0.36020    1.000
    C112     C        0.84440    0.71740    0.84940    1.000
    N73      N        0.69774    0.85954    0.86870    1.000
    N74      N        0.68694    0.79818    0.69770    1.000
    N75      N        0.66290    0.96930    0.66410    1.000
    N76      N        0.55672    0.92710    0.91970    1.000
    N77      N        0.53351    0.82860    0.63130    1.000
    N78      N        0.58370    0.73200    0.89100    1.000
    N79      N        0.79228    0.84151    0.86600    1.000
    N80      N        0.78145    0.77995    0.69600    1.000
    N81      N        0.86590    0.92490    0.66350    1.000
    N82      N        0.42360    0.77260    0.62560    1.000
    N83      N        0.54860    0.82930    0.40830    1.000
    N84      N        0.84190    0.67140    0.88810    1.000
    O25      O        0.39500    0.88340    0.54020    1.000
    O26      O        0.62460    0.63780    0.99620    1.000
    O27      O        0.49720    0.93030    0.52330    1.000
    O28      O        0.54080    0.58150    0.08790    1.000
    Yb8      Yb       0.46851    0.32798    0.00086    1.000
    Ru15     Ru       0.62872    0.34820    0.27940    1.000
    Ru16     Ru       0.85167    0.29875    0.27681    1.000
    C113     C        0.74246    0.33610    0.33030    1.000
    C114     C        0.70350    0.39100    0.45400    1.000
    H43      H        0.67280    0.40760    0.48540    1.000
    C115     C        0.75302    0.39940    0.49620    1.000
    H44      H        0.75670    0.42210    0.55580    1.000
    C116     C        0.73624    0.30220    0.23620    1.000
    C117     C        0.68240    0.26710    0.11330    1.000
    H45      H        0.64800    0.26230    0.08430    1.000
    C118     C        0.72600    0.24170    0.06700    1.000
    H46      H        0.72200    0.21920    0.00720    1.000
    C119     C        0.65080    0.42540    0.20530    1.000
    C120     C        0.58230    0.39770    0.36720    1.000
    C121     C        0.56910    0.33590    0.18540    1.000
    C122     C        0.60230    0.27290    0.35110    1.000
    C123     C        0.79740    0.37450    0.45060    1.000
    H47      H        0.83190    0.38050    0.47870    1.000
    C124     C        0.77600    0.24960    0.10970    1.000
    H48      H        0.80680    0.23340    0.07780    1.000
    C125     C        0.86073    0.37890    0.20330    1.000
    C126     C        0.39860    0.24350    0.18200    1.000
    C127     C        0.58500    0.31950    0.86020    1.000
    C128     C        0.84440    0.21740    0.34940    1.000
    N85      N        0.69774    0.35954    0.36870    1.000
    N86      N        0.68694    0.29818    0.19770    1.000
    N87      N        0.66290    0.46930    0.16410    1.000
    N88      N        0.55672    0.42710    0.41970    1.000
    N89      N        0.53351    0.32860    0.13130    1.000
    N90      N        0.58370    0.23200    0.39100    1.000
    N91      N        0.79228    0.34151    0.36600    1.000
    N92      N        0.78145    0.27995    0.19600    1.000
    N93      N        0.86590    0.42490    0.16350    1.000
    N94      N        0.42360    0.27260    0.12560    1.000
    N95      N        0.54860    0.32930    0.90830    1.000
    N96      N        0.84190    0.17140    0.38810    1.000
    O29      O        0.39500    0.38340    0.04020    1.000
    O30      O        0.62460    0.13780    0.49620    1.000
    O31      O        0.49720    0.43030    0.02330    1.000
    O32      O        0.54080    0.08150    0.58790    1.000
    Yb9      Yb       0.00000    0.50000    0.00063    1.000
    Yb10     Yb       0.00000    0.00000    0.50063    1.000
    Yb11     Yb       0.50000    0.00000    0.00063    1.000
    Yb12     Yb       0.50000    0.50000    0.50063    1.000
