# CIF file generated by openbabel 3.1.0, see https://openbabel.org
data_I
_chemical_name_common 'image0'
_cell_length_a 21.5012
_cell_length_b 11.7251
_cell_length_c 25.7606
_cell_angle_alpha 90
_cell_angle_beta 103.492
_cell_angle_gamma 90
_space_group_name_H-M_alt 'P 1'
_space_group_name_Hall 'P 1'
loop_
    _symmetry_equiv_pos_as_xyz
    x,y,z
loop_
    _atom_site_label
    _atom_site_type_symbol
    _atom_site_fract_x
    _atom_site_fract_y
    _atom_site_fract_z
    _atom_site_occupancy
    Ag1      Ag       0.05399    0.30408    0.03052    1.000
    Cr1      Cr       0.23033    0.36263    0.33752    1.000
    O1       O        0.20132    0.23224    0.29112    1.000
    O2       O        0.20606    0.46394    0.27661    1.000
    O3       O        0.26170    0.50592    0.88181    1.000
    O4       O        0.14658    0.62080    0.85297    1.000
    O5       O        0.81633    0.15369    0.82600    1.000
    O6       O        0.75292    0.23721    0.89914    1.000
    N1       N        0.08651    0.31120    0.11658    1.000
    N2       N        0.12975    0.36430    0.98816    1.000
    N3       N        0.96720    0.32690    0.96587    1.000
    C1       C        0.15146    0.11720    0.21829    1.000
    H1       H        0.15980    0.05810    0.24590    1.000
    H2       H        0.17700    0.10190    0.19210    1.000
    H3       H        0.10590    0.11700    0.20040    1.000
    C2       C        0.16927    0.23124    0.24335    1.000
    C3       C        0.15221    0.33210    0.21300    1.000
    C4       C        0.17239    0.44270    0.23087    1.000
    C5       C        0.15561    0.54370    0.19442    1.000
    H4       H        0.11130    0.56640    0.19260    1.000
    H5       H        0.16030    0.52330    0.15860    1.000
    H6       H        0.18430    0.60720    0.20820    1.000
    C6       C        0.11528    0.31980    0.15978    1.000
    C7       C        0.27103    0.35410    0.94302    1.000
    H7       H        0.31370    0.34980    0.93560    1.000
    H8       H        0.27520    0.36630    0.98130    1.000
    H9       H        0.24800    0.28260    0.93220    1.000
    C8       C        0.23475    0.45100    0.91243    1.000
    C9       C        0.17248    0.47600    0.91807    1.000
    C10      C        0.13025    0.55670    0.88698    1.000
    C11      C        0.06341    0.56770    0.89300    1.000
    H10      H        0.03660    0.50960    0.87120    1.000
    H11      H        0.06260    0.55710    0.93060    1.000
    H12      H        0.04700    0.64370    0.88120    1.000
    C12      C        0.14893    0.41260    0.95656    1.000
    C13      C        0.80969    0.34380    0.97200    1.000
    H13      H        0.83680    0.30650    0.00320    1.000
    H14      H        0.82740    0.41910    0.96710    1.000
    H15      H        0.76630    0.35270    0.97740    1.000
    C14      C        0.80753    0.27220    0.92320    1.000
    C15      C        0.86368    0.25110    0.90559    1.000
    C16      C        0.86579    0.19199    0.85790    1.000
    C17      C        0.92737    0.17410    0.84242    1.000
    H16      H        0.91970    0.13110    0.80890    1.000
    H17      H        0.94640    0.24810    0.83760    1.000
    H18      H        0.95660    0.13110    0.87050    1.000
    C18      C        0.92182    0.29090    0.93840    1.000
    Ag2      Ag       0.55399    0.80408    0.03052    1.000
    Cr2      Cr       0.73033    0.86263    0.33752    1.000
    O7       O        0.70132    0.73224    0.29112    1.000
    O8       O        0.70606    0.96394    0.27661    1.000
    O9       O        0.76170    0.00592    0.88181    1.000
    O10      O        0.64658    0.12080    0.85297    1.000
    O11      O        0.31633    0.65369    0.82600    1.000
    O12      O        0.25292    0.73721    0.89914    1.000
    N4       N        0.58651    0.81120    0.11658    1.000
    N5       N        0.62975    0.86430    0.98816    1.000
    N6       N        0.46720    0.82690    0.96587    1.000
    C19      C        0.65146    0.61720    0.21829    1.000
    H19      H        0.65980    0.55810    0.24590    1.000
    H20      H        0.67700    0.60190    0.19210    1.000
    H21      H        0.60590    0.61700    0.20040    1.000
    C20      C        0.66927    0.73124    0.24335    1.000
    C21      C        0.65221    0.83210    0.21300    1.000
    C22      C        0.67239    0.94270    0.23087    1.000
    C23      C        0.65561    0.04370    0.19442    1.000
    H22      H        0.61130    0.06640    0.19260    1.000
    H23      H        0.66030    0.02330    0.15860    1.000
    H24      H        0.68430    0.10720    0.20820    1.000
    C24      C        0.61528    0.81980    0.15978    1.000
    C25      C        0.77103    0.85410    0.94302    1.000
    H25      H        0.81370    0.84980    0.93560    1.000
    H26      H        0.77520    0.86630    0.98130    1.000
    H27      H        0.74800    0.78260    0.93220    1.000
    C26      C        0.73475    0.95100    0.91243    1.000
    C27      C        0.67248    0.97600    0.91807    1.000
    C28      C        0.63025    0.05670    0.88698    1.000
    C29      C        0.56341    0.06770    0.89300    1.000
    H28      H        0.53660    0.00960    0.87120    1.000
    H29      H        0.56260    0.05710    0.93060    1.000
    H30      H        0.54700    0.14370    0.88120    1.000
    C30      C        0.64893    0.91260    0.95656    1.000
    C31      C        0.30969    0.84380    0.97200    1.000
    H31      H        0.33680    0.80650    0.00320    1.000
    H32      H        0.32740    0.91910    0.96710    1.000
    H33      H        0.26630    0.85270    0.97740    1.000
    C32      C        0.30753    0.77220    0.92320    1.000
    C33      C        0.36368    0.75110    0.90559    1.000
    C34      C        0.36579    0.69199    0.85790    1.000
    C35      C        0.42737    0.67410    0.84242    1.000
    H34      H        0.41970    0.63110    0.80890    1.000
    H35      H        0.44640    0.74810    0.83760    1.000
    H36      H        0.45660    0.63110    0.87050    1.000
    C36      C        0.42182    0.79090    0.93840    1.000
    Ag3      Ag       0.05399    0.69592    0.53052    1.000
    Cr3      Cr       0.23033    0.63737    0.83752    1.000
    O13      O        0.20132    0.76776    0.79112    1.000
    O14      O        0.20606    0.53606    0.77661    1.000
    O15      O        0.26170    0.49408    0.38181    1.000
    O16      O        0.14658    0.37920    0.35297    1.000
    O17      O        0.81633    0.84631    0.32600    1.000
    O18      O        0.75292    0.76279    0.39914    1.000
    N7       N        0.08651    0.68880    0.61658    1.000
    N8       N        0.12975    0.63570    0.48816    1.000
    N9       N        0.96720    0.67310    0.46587    1.000
    C37      C        0.15146    0.88280    0.71829    1.000
    H37      H        0.15980    0.94190    0.74590    1.000
    H38      H        0.17700    0.89810    0.69210    1.000
    H39      H        0.10590    0.88300    0.70040    1.000
    C38      C        0.16927    0.76876    0.74335    1.000
    C39      C        0.15221    0.66790    0.71300    1.000
    C40      C        0.17239    0.55730    0.73087    1.000
    C41      C        0.15561    0.45630    0.69442    1.000
    H40      H        0.11130    0.43360    0.69260    1.000
    H41      H        0.16030    0.47670    0.65860    1.000
    H42      H        0.18430    0.39280    0.70820    1.000
    C42      C        0.11528    0.68020    0.65978    1.000
    C43      C        0.27103    0.64590    0.44302    1.000
    H43      H        0.31370    0.65020    0.43560    1.000
    H44      H        0.27520    0.63370    0.48130    1.000
    H45      H        0.24800    0.71740    0.43220    1.000
    C44      C        0.23475    0.54900    0.41243    1.000
    C45      C        0.17248    0.52400    0.41807    1.000
    C46      C        0.13025    0.44330    0.38698    1.000
    C47      C        0.06341    0.43230    0.39300    1.000
    H46      H        0.03660    0.49040    0.37120    1.000
    H47      H        0.06260    0.44290    0.43060    1.000
    H48      H        0.04700    0.35630    0.38120    1.000
    C48      C        0.14893    0.58740    0.45656    1.000
    C49      C        0.80969    0.65620    0.47200    1.000
    H49      H        0.83680    0.69350    0.50320    1.000
    H50      H        0.82740    0.58090    0.46710    1.000
    H51      H        0.76630    0.64730    0.47740    1.000
    C50      C        0.80753    0.72780    0.42320    1.000
    C51      C        0.86368    0.74890    0.40559    1.000
    C52      C        0.86579    0.80801    0.35790    1.000
    C53      C        0.92737    0.82590    0.34242    1.000
    H52      H        0.91970    0.86890    0.30890    1.000
    H53      H        0.94640    0.75190    0.33760    1.000
    H54      H        0.95660    0.86890    0.37050    1.000
    C54      C        0.92182    0.70910    0.43840    1.000
    Ag4      Ag       0.55399    0.19592    0.53052    1.000
    Cr4      Cr       0.73033    0.13737    0.83752    1.000
    O19      O        0.70132    0.26776    0.79112    1.000
    O20      O        0.70606    0.03606    0.77661    1.000
    O21      O        0.76170    0.99408    0.38181    1.000
    O22      O        0.64658    0.87920    0.35297    1.000
    O23      O        0.31633    0.34631    0.32600    1.000
    O24      O        0.25292    0.26279    0.39914    1.000
    N10      N        0.58651    0.18880    0.61658    1.000
    N11      N        0.62975    0.13570    0.48816    1.000
    N12      N        0.46720    0.17310    0.46587    1.000
    C55      C        0.65146    0.38280    0.71829    1.000
    H55      H        0.65980    0.44190    0.74590    1.000
    H56      H        0.67700    0.39810    0.69210    1.000
    H57      H        0.60590    0.38300    0.70040    1.000
    C56      C        0.66927    0.26876    0.74335    1.000
    C57      C        0.65221    0.16790    0.71300    1.000
    C58      C        0.67239    0.05730    0.73087    1.000
    C59      C        0.65561    0.95630    0.69442    1.000
    H58      H        0.61130    0.93360    0.69260    1.000
    H59      H        0.66030    0.97670    0.65860    1.000
    H60      H        0.68430    0.89280    0.70820    1.000
    C60      C        0.61528    0.18020    0.65978    1.000
    C61      C        0.77103    0.14590    0.44302    1.000
    H61      H        0.81370    0.15020    0.43560    1.000
    H62      H        0.77520    0.13370    0.48130    1.000
    H63      H        0.74800    0.21740    0.43220    1.000
    C62      C        0.73475    0.04900    0.41243    1.000
    C63      C        0.67248    0.02400    0.41807    1.000
    C64      C        0.63025    0.94330    0.38698    1.000
    C65      C        0.56341    0.93230    0.39300    1.000
    H64      H        0.53660    0.99040    0.37120    1.000
    H65      H        0.56260    0.94290    0.43060    1.000
    H66      H        0.54700    0.85630    0.38120    1.000
    C66      C        0.64893    0.08740    0.45656    1.000
    C67      C        0.30969    0.15620    0.47200    1.000
    H67      H        0.33680    0.19350    0.50320    1.000
    H68      H        0.32740    0.08090    0.46710    1.000
    H69      H        0.26630    0.14730    0.47740    1.000
    C68      C        0.30753    0.22780    0.42320    1.000
    C69      C        0.36368    0.24890    0.40559    1.000
    C70      C        0.36579    0.30801    0.35790    1.000
    C71      C        0.42737    0.32590    0.34242    1.000
    H70      H        0.41970    0.36890    0.30890    1.000
    H71      H        0.44640    0.25190    0.33760    1.000
    H72      H        0.45660    0.36890    0.37050    1.000
    C72      C        0.42182    0.20910    0.43840    1.000
    Ag5      Ag       0.94601    0.30408    0.46948    1.000
    Cr5      Cr       0.76967    0.36263    0.16248    1.000
    O25      O        0.79868    0.23224    0.20888    1.000
    O26      O        0.79394    0.46394    0.22339    1.000
    O27      O        0.73830    0.50592    0.61819    1.000
    O28      O        0.85342    0.62080    0.64703    1.000
    O29      O        0.18367    0.15369    0.67400    1.000
    O30      O        0.24708    0.23721    0.60086    1.000
    N13      N        0.91349    0.31120    0.38342    1.000
    N14      N        0.87025    0.36430    0.51184    1.000
    N15      N        0.03280    0.32690    0.53413    1.000
    C73      C        0.84854    0.11720    0.28171    1.000
    H73      H        0.84020    0.05810    0.25410    1.000
    H74      H        0.82300    0.10190    0.30790    1.000
    H75      H        0.89410    0.11700    0.29960    1.000
    C74      C        0.83073    0.23124    0.25665    1.000
    C75      C        0.84779    0.33210    0.28700    1.000
    C76      C        0.82761    0.44270    0.26913    1.000
    C77      C        0.84439    0.54370    0.30558    1.000
    H76      H        0.88870    0.56640    0.30740    1.000
    H77      H        0.83970    0.52330    0.34140    1.000
    H78      H        0.81570    0.60720    0.29180    1.000
    C78      C        0.88472    0.31980    0.34022    1.000
    C79      C        0.72897    0.35410    0.55698    1.000
    H79      H        0.68630    0.34980    0.56440    1.000
    H80      H        0.72480    0.36630    0.51870    1.000
    H81      H        0.75200    0.28260    0.56780    1.000
    C80      C        0.76525    0.45100    0.58757    1.000
    C81      C        0.82752    0.47600    0.58193    1.000
    C82      C        0.86975    0.55670    0.61302    1.000
    C83      C        0.93659    0.56770    0.60700    1.000
    H82      H        0.96340    0.50960    0.62880    1.000
    H83      H        0.93740    0.55710    0.56940    1.000
    H84      H        0.95300    0.64370    0.61880    1.000
    C84      C        0.85107    0.41260    0.54344    1.000
    C85      C        0.19031    0.34380    0.52800    1.000
    H85      H        0.16320    0.30650    0.49680    1.000
    H86      H        0.17260    0.41910    0.53290    1.000
    H87      H        0.23370    0.35270    0.52260    1.000
    C86      C        0.19247    0.27220    0.57680    1.000
    C87      C        0.13632    0.25110    0.59441    1.000
    C88      C        0.13421    0.19199    0.64210    1.000
    C89      C        0.07263    0.17410    0.65758    1.000
    H88      H        0.08030    0.13110    0.69110    1.000
    H89      H        0.05360    0.24810    0.66240    1.000
    H90      H        0.04340    0.13110    0.62950    1.000
    C90      C        0.07818    0.29090    0.56160    1.000
    Ag6      Ag       0.44601    0.80408    0.46948    1.000
    Cr6      Cr       0.26967    0.86263    0.16248    1.000
    O31      O        0.29868    0.73224    0.20888    1.000
    O32      O        0.29394    0.96394    0.22339    1.000
    O33      O        0.23830    0.00592    0.61819    1.000
    O34      O        0.35342    0.12080    0.64703    1.000
    O35      O        0.68367    0.65369    0.67400    1.000
    O36      O        0.74708    0.73721    0.60086    1.000
    N16      N        0.41349    0.81120    0.38342    1.000
    N17      N        0.37025    0.86430    0.51184    1.000
    N18      N        0.53280    0.82690    0.53413    1.000
    C91      C        0.34854    0.61720    0.28171    1.000
    H91      H        0.34020    0.55810    0.25410    1.000
    H92      H        0.32300    0.60190    0.30790    1.000
    H93      H        0.39410    0.61700    0.29960    1.000
    C92      C        0.33073    0.73124    0.25665    1.000
    C93      C        0.34779    0.83210    0.28700    1.000
    C94      C        0.32761    0.94270    0.26913    1.000
    C95      C        0.34439    0.04370    0.30558    1.000
    H94      H        0.38870    0.06640    0.30740    1.000
    H95      H        0.33970    0.02330    0.34140    1.000
    H96      H        0.31570    0.10720    0.29180    1.000
    C96      C        0.38472    0.81980    0.34022    1.000
    C97      C        0.22897    0.85410    0.55698    1.000
    H97      H        0.18630    0.84980    0.56440    1.000
    H98      H        0.22480    0.86630    0.51870    1.000
    H99      H        0.25200    0.78260    0.56780    1.000
    C98      C        0.26525    0.95100    0.58757    1.000
    C99      C        0.32752    0.97600    0.58193    1.000
    C100     C        0.36975    0.05670    0.61302    1.000
    C101     C        0.43659    0.06770    0.60700    1.000
    H100     H        0.46340    0.00960    0.62880    1.000
    H101     H        0.43740    0.05710    0.56940    1.000
    H102     H        0.45300    0.14370    0.61880    1.000
    C102     C        0.35107    0.91260    0.54344    1.000
    C103     C        0.69031    0.84380    0.52800    1.000
    H103     H        0.66320    0.80650    0.49680    1.000
    H104     H        0.67260    0.91910    0.53290    1.000
    H105     H        0.73370    0.85270    0.52260    1.000
    C104     C        0.69247    0.77220    0.57680    1.000
    C105     C        0.63632    0.75110    0.59441    1.000
    C106     C        0.63421    0.69199    0.64210    1.000
    C107     C        0.57263    0.67410    0.65758    1.000
    H106     H        0.58030    0.63110    0.69110    1.000
    H107     H        0.55360    0.74810    0.66240    1.000
    H108     H        0.54340    0.63110    0.62950    1.000
    C108     C        0.57818    0.79090    0.56160    1.000
    Ag7      Ag       0.94601    0.69592    0.96948    1.000
    Cr7      Cr       0.76967    0.63737    0.66248    1.000
    O37      O        0.79868    0.76776    0.70888    1.000
    O38      O        0.79394    0.53606    0.72339    1.000
    O39      O        0.73830    0.49408    0.11819    1.000
    O40      O        0.85342    0.37920    0.14703    1.000
    O41      O        0.18367    0.84631    0.17400    1.000
    O42      O        0.24708    0.76279    0.10086    1.000
    N19      N        0.91349    0.68880    0.88342    1.000
    N20      N        0.87025    0.63570    0.01184    1.000
    N21      N        0.03280    0.67310    0.03413    1.000
    C109     C        0.84854    0.88280    0.78171    1.000
    H109     H        0.84020    0.94190    0.75410    1.000
    H110     H        0.82300    0.89810    0.80790    1.000
    H111     H        0.89410    0.88300    0.79960    1.000
    C110     C        0.83073    0.76876    0.75665    1.000
    C111     C        0.84779    0.66790    0.78700    1.000
    C112     C        0.82761    0.55730    0.76913    1.000
    C113     C        0.84439    0.45630    0.80558    1.000
    H112     H        0.88870    0.43360    0.80740    1.000
    H113     H        0.83970    0.47670    0.84140    1.000
    H114     H        0.81570    0.39280    0.79180    1.000
    C114     C        0.88472    0.68020    0.84022    1.000
    C115     C        0.72897    0.64590    0.05698    1.000
    H115     H        0.68630    0.65020    0.06440    1.000
    H116     H        0.72480    0.63370    0.01870    1.000
    H117     H        0.75200    0.71740    0.06780    1.000
    C116     C        0.76525    0.54900    0.08757    1.000
    C117     C        0.82752    0.52400    0.08193    1.000
    C118     C        0.86975    0.44330    0.11302    1.000
    C119     C        0.93659    0.43230    0.10700    1.000
    H118     H        0.96340    0.49040    0.12880    1.000
    H119     H        0.93740    0.44290    0.06940    1.000
    H120     H        0.95300    0.35630    0.11880    1.000
    C120     C        0.85107    0.58740    0.04344    1.000
    C121     C        0.19031    0.65620    0.02800    1.000
    H121     H        0.16320    0.69350    0.99680    1.000
    H122     H        0.17260    0.58090    0.03290    1.000
    H123     H        0.23370    0.64730    0.02260    1.000
    C122     C        0.19247    0.72780    0.07680    1.000
    C123     C        0.13632    0.74890    0.09441    1.000
    C124     C        0.13421    0.80801    0.14210    1.000
    C125     C        0.07263    0.82590    0.15758    1.000
    H124     H        0.08030    0.86890    0.19110    1.000
    H125     H        0.05360    0.75190    0.16240    1.000
    H126     H        0.04340    0.86890    0.12950    1.000
    C126     C        0.07818    0.70910    0.06160    1.000
    Ag8      Ag       0.44601    0.19592    0.96948    1.000
    Cr8      Cr       0.26967    0.13737    0.66248    1.000
    O43      O        0.29868    0.26776    0.70888    1.000
    O44      O        0.29394    0.03606    0.72339    1.000
    O45      O        0.23830    0.99408    0.11819    1.000
    O46      O        0.35342    0.87920    0.14703    1.000
    O47      O        0.68367    0.34631    0.17400    1.000
    O48      O        0.74708    0.26279    0.10086    1.000
    N22      N        0.41349    0.18880    0.88342    1.000
    N23      N        0.37025    0.13570    0.01184    1.000
    N24      N        0.53280    0.17310    0.03413    1.000
    C127     C        0.34854    0.38280    0.78171    1.000
    H127     H        0.34020    0.44190    0.75410    1.000
    H128     H        0.32300    0.39810    0.80790    1.000
    H129     H        0.39410    0.38300    0.79960    1.000
    C128     C        0.33073    0.26876    0.75665    1.000
    C129     C        0.34779    0.16790    0.78700    1.000
    C130     C        0.32761    0.05730    0.76913    1.000
    C131     C        0.34439    0.95630    0.80558    1.000
    H130     H        0.38870    0.93360    0.80740    1.000
    H131     H        0.33970    0.97670    0.84140    1.000
    H132     H        0.31570    0.89280    0.79180    1.000
    C132     C        0.38472    0.18020    0.84022    1.000
    C133     C        0.22897    0.14590    0.05698    1.000
    H133     H        0.18630    0.15020    0.06440    1.000
    H134     H        0.22480    0.13370    0.01870    1.000
    H135     H        0.25200    0.21740    0.06780    1.000
    C134     C        0.26525    0.04900    0.08757    1.000
    C135     C        0.32752    0.02400    0.08193    1.000
    C136     C        0.36975    0.94330    0.11302    1.000
    C137     C        0.43659    0.93230    0.10700    1.000
    H136     H        0.46340    0.99040    0.12880    1.000
    H137     H        0.43740    0.94290    0.06940    1.000
    H138     H        0.45300    0.85630    0.11880    1.000
    C138     C        0.35107    0.08740    0.04344    1.000
    C139     C        0.69031    0.15620    0.02800    1.000
    H139     H        0.66320    0.19350    0.99680    1.000
    H140     H        0.67260    0.08090    0.03290    1.000
    H141     H        0.73370    0.14730    0.02260    1.000
    C140     C        0.69247    0.22780    0.07680    1.000
    C141     C        0.63632    0.24890    0.09441    1.000
    C142     C        0.63421    0.30801    0.14210    1.000
    C143     C        0.57263    0.32590    0.15758    1.000
    H142     H        0.58030    0.36890    0.19110    1.000
    H143     H        0.55360    0.25190    0.16240    1.000
    H144     H        0.54340    0.36890    0.12950    1.000
    C144     C        0.57818    0.20910    0.06160    1.000
