# CIF file generated by openbabel 3.1.0, see https://openbabel.org
data_I
_chemical_name_common 'image0'
_cell_length_a 26.28
_cell_length_b 47.8
_cell_length_c 9.585
_cell_angle_alpha 90
_cell_angle_beta 90
_cell_angle_gamma 90
_space_group_name_H-M_alt 'P 1'
_space_group_name_Hall 'P 1'
loop_
    _symmetry_equiv_pos_as_xyz
    x,y,z
loop_
    _atom_site_label
    _atom_site_type_symbol
    _atom_site_fract_x
    _atom_site_fract_y
    _atom_site_fract_z
    _atom_site_occupancy
    N1       N        0.14100    0.23249    0.70130    1.000
    C1       C        0.10440    0.25250    0.73260    1.000
    H1       H        0.07970    0.24880    0.79950    1.000
    C2       C        0.10470    0.27811    0.66390    1.000
    H2       H        0.08010    0.29150    0.68480    1.000
    C3       C        0.14160    0.28371    0.56390    1.000
    C4       C        0.17820    0.26370    0.53260    1.000
    H3       H        0.20290    0.26740    0.46570    1.000
    C5       C        0.17790    0.23809    0.60130    1.000
    H4       H        0.20250    0.22470    0.58030    1.000
    C6       C        0.14640    0.31010    0.47300    1.000
    C7       C        0.17300    0.32940    0.42300    1.000
    C8       C        0.14040    0.35290    0.35970    1.000
    C9       C        0.17370    0.35770    0.24970    1.000
    H5       H        0.19990    0.34520    0.23180    1.000
    C10      C        0.16790    0.38130    0.16650    1.000
    H6       H        0.19020    0.38450    0.09290    1.000
    N2       N        0.12870    0.40010    0.19330    1.000
    C11      C        0.09540    0.39530    0.30330    1.000
    H7       H        0.06920    0.40790    0.32120    1.000
    C12      C        0.10120    0.37170    0.38650    1.000
    H8       H        0.07890    0.36850    0.46010    1.000
    C13      C        0.37020    0.19800    0.04200    1.000
    H9       H        0.37060    0.21330    0.10220    1.000
    N3       N        0.22220    0.19053    0.85700    1.000
    C14      C        0.23720    0.21166    0.94770    1.000
    H10      H        0.21420    0.22550    0.97390    1.000
    C15      C        0.28670    0.21215    0.99940    1.000
    H11      H        0.29670    0.22630    0.06010    1.000
    C16      C        0.32110    0.19150    0.96020    1.000
    C17      C        0.30610    0.17040    0.86950    1.000
    H12      H        0.32910    0.15660    0.84330    1.000
    C18      C        0.25670    0.16989    0.81780    1.000
    H13      H        0.24660    0.15580    0.75710    1.000
    C19      C        0.40950    0.18360    0.02900    1.000
    H14      H        0.40660    0.16980    0.96120    1.000
    C20      C        0.45500    0.18350    0.09320    1.000
    C21      C        0.46350    0.19900    0.21390    1.000
    H15      H        0.43670    0.20850    0.25610    1.000
    C22      C        0.51200    0.20020    0.27150    1.000
    H16      H        0.51770    0.21050    0.35230    1.000
    N4       N        0.55200    0.18600    0.20850    1.000
    C23      C        0.54350    0.17050    0.08780    1.000
    H17      H        0.57020    0.16100    0.04560    1.000
    C24      C        0.49500    0.16930    0.03020    1.000
    H18      H        0.48930    0.15900    0.94940    1.000
    Cd1      Cd       0.13538    0.18827    0.80090    1.000
    C25      C        0.11930    0.33150    0.46500    1.000
    N5       N        0.14100    0.73249    0.20130    1.000
    C26      C        0.10440    0.75250    0.23260    1.000
    H19      H        0.07970    0.74880    0.29950    1.000
    C27      C        0.10470    0.77811    0.16390    1.000
    H20      H        0.08010    0.79150    0.18480    1.000
    C28      C        0.14160    0.78371    0.06390    1.000
    C29      C        0.17820    0.76370    0.03260    1.000
    H21      H        0.20290    0.76740    0.96570    1.000
    C30      C        0.17790    0.73809    0.10130    1.000
    H22      H        0.20250    0.72470    0.08030    1.000
    C31      C        0.14640    0.81010    0.97300    1.000
    C32      C        0.17300    0.82940    0.92300    1.000
    C33      C        0.14040    0.85290    0.85970    1.000
    C34      C        0.17370    0.85770    0.74970    1.000
    H23      H        0.19990    0.84520    0.73180    1.000
    C35      C        0.16790    0.88130    0.66650    1.000
    H24      H        0.19020    0.88450    0.59290    1.000
    N6       N        0.12870    0.90010    0.69330    1.000
    C36      C        0.09540    0.89530    0.80330    1.000
    H25      H        0.06920    0.90790    0.82120    1.000
    C37      C        0.10120    0.87170    0.88650    1.000
    H26      H        0.07890    0.86850    0.96010    1.000
    C38      C        0.37020    0.69800    0.54200    1.000
    H27      H        0.37060    0.71330    0.60220    1.000
    N7       N        0.22220    0.69053    0.35700    1.000
    C39      C        0.23720    0.71166    0.44770    1.000
    H28      H        0.21420    0.72550    0.47390    1.000
    C40      C        0.28670    0.71215    0.49940    1.000
    H29      H        0.29670    0.72630    0.56010    1.000
    C41      C        0.32110    0.69150    0.46020    1.000
    C42      C        0.30610    0.67040    0.36950    1.000
    H30      H        0.32910    0.65660    0.34330    1.000
    C43      C        0.25670    0.66989    0.31780    1.000
    H31      H        0.24660    0.65580    0.25710    1.000
    C44      C        0.40950    0.68360    0.52900    1.000
    H32      H        0.40660    0.66980    0.46120    1.000
    C45      C        0.45500    0.68350    0.59320    1.000
    C46      C        0.46350    0.69900    0.71390    1.000
    H33      H        0.43670    0.70850    0.75610    1.000
    C47      C        0.51200    0.70020    0.77150    1.000
    H34      H        0.51770    0.71050    0.85230    1.000
    N8       N        0.55200    0.68600    0.70850    1.000
    C48      C        0.54350    0.67050    0.58780    1.000
    H35      H        0.57020    0.66100    0.54560    1.000
    C49      C        0.49500    0.66930    0.53020    1.000
    H36      H        0.48930    0.65900    0.44940    1.000
    Cd2      Cd       0.13538    0.68827    0.30090    1.000
    C50      C        0.11930    0.83150    0.96500    1.000
    N9       N        0.64100    0.23249    0.20130    1.000
    C51      C        0.60440    0.25250    0.23260    1.000
    H37      H        0.57970    0.24880    0.29950    1.000
    C52      C        0.60470    0.27811    0.16390    1.000
    H38      H        0.58010    0.29150    0.18480    1.000
    C53      C        0.64160    0.28371    0.06390    1.000
    C54      C        0.67820    0.26370    0.03260    1.000
    H39      H        0.70290    0.26740    0.96570    1.000
    C55      C        0.67790    0.23809    0.10130    1.000
    H40      H        0.70250    0.22470    0.08030    1.000
    C56      C        0.64640    0.31010    0.97300    1.000
    C57      C        0.67300    0.32940    0.92300    1.000
    C58      C        0.64040    0.35290    0.85970    1.000
    C59      C        0.67370    0.35770    0.74970    1.000
    H41      H        0.69990    0.34520    0.73180    1.000
    C60      C        0.66790    0.38130    0.66650    1.000
    H42      H        0.69020    0.38450    0.59290    1.000
    N10      N        0.62870    0.40010    0.69330    1.000
    C61      C        0.59540    0.39530    0.80330    1.000
    H43      H        0.56920    0.40790    0.82120    1.000
    C62      C        0.60120    0.37170    0.88650    1.000
    H44      H        0.57890    0.36850    0.96010    1.000
    C63      C        0.87020    0.19800    0.54200    1.000
    H45      H        0.87060    0.21330    0.60220    1.000
    N11      N        0.72220    0.19053    0.35700    1.000
    C64      C        0.73720    0.21166    0.44770    1.000
    H46      H        0.71420    0.22550    0.47390    1.000
    C65      C        0.78670    0.21215    0.49940    1.000
    H47      H        0.79670    0.22630    0.56010    1.000
    C66      C        0.82110    0.19150    0.46020    1.000
    C67      C        0.80610    0.17040    0.36950    1.000
    H48      H        0.82910    0.15660    0.34330    1.000
    C68      C        0.75670    0.16989    0.31780    1.000
    H49      H        0.74660    0.15580    0.25710    1.000
    C69      C        0.90950    0.18360    0.52900    1.000
    H50      H        0.90660    0.16980    0.46120    1.000
    C70      C        0.95500    0.18350    0.59320    1.000
    C71      C        0.96350    0.19900    0.71390    1.000
    H51      H        0.93670    0.20850    0.75610    1.000
    C72      C        0.01200    0.20020    0.77150    1.000
    H52      H        0.01770    0.21050    0.85230    1.000
    N12      N        0.05200    0.18600    0.70850    1.000
    C73      C        0.04350    0.17050    0.58780    1.000
    H53      H        0.07020    0.16100    0.54560    1.000
    C74      C        0.99500    0.16930    0.53020    1.000
    H54      H        0.98930    0.15900    0.44940    1.000
    Cd3      Cd       0.63538    0.18827    0.30090    1.000
    C75      C        0.61930    0.33150    0.96500    1.000
    N13      N        0.64100    0.73249    0.70130    1.000
    C76      C        0.60440    0.75250    0.73260    1.000
    H55      H        0.57970    0.74880    0.79950    1.000
    C77      C        0.60470    0.77811    0.66390    1.000
    H56      H        0.58010    0.79150    0.68480    1.000
    C78      C        0.64160    0.78371    0.56390    1.000
    C79      C        0.67820    0.76370    0.53260    1.000
    H57      H        0.70290    0.76740    0.46570    1.000
    C80      C        0.67790    0.73809    0.60130    1.000
    H58      H        0.70250    0.72470    0.58030    1.000
    C81      C        0.64640    0.81010    0.47300    1.000
    C82      C        0.67300    0.82940    0.42300    1.000
    C83      C        0.64040    0.85290    0.35970    1.000
    C84      C        0.67370    0.85770    0.24970    1.000
    H59      H        0.69990    0.84520    0.23180    1.000
    C85      C        0.66790    0.88130    0.16650    1.000
    H60      H        0.69020    0.88450    0.09290    1.000
    N14      N        0.62870    0.90010    0.19330    1.000
    C86      C        0.59540    0.89530    0.30330    1.000
    H61      H        0.56920    0.90790    0.32120    1.000
    C87      C        0.60120    0.87170    0.38650    1.000
    H62      H        0.57890    0.86850    0.46010    1.000
    C88      C        0.87020    0.69800    0.04200    1.000
    H63      H        0.87060    0.71330    0.10220    1.000
    N15      N        0.72220    0.69053    0.85700    1.000
    C89      C        0.73720    0.71166    0.94770    1.000
    H64      H        0.71420    0.72550    0.97390    1.000
    C90      C        0.78670    0.71215    0.99940    1.000
    H65      H        0.79670    0.72630    0.06010    1.000
    C91      C        0.82110    0.69150    0.96020    1.000
    C92      C        0.80610    0.67040    0.86950    1.000
    H66      H        0.82910    0.65660    0.84330    1.000
    C93      C        0.75670    0.66989    0.81780    1.000
    H67      H        0.74660    0.65580    0.75710    1.000
    C94      C        0.90950    0.68360    0.02900    1.000
    H68      H        0.90660    0.66980    0.96120    1.000
    C95      C        0.95500    0.68350    0.09320    1.000
    C96      C        0.96350    0.69900    0.21390    1.000
    H69      H        0.93670    0.70850    0.25610    1.000
    C97      C        0.01200    0.70020    0.27150    1.000
    H70      H        0.01770    0.71050    0.35230    1.000
    N16      N        0.05200    0.68600    0.20850    1.000
    C98      C        0.04350    0.67050    0.08780    1.000
    H71      H        0.07020    0.66100    0.04560    1.000
    C99      C        0.99500    0.66930    0.03020    1.000
    H72      H        0.98930    0.65900    0.94940    1.000
    Cd4      Cd       0.63538    0.68827    0.80090    1.000
    C100     C        0.61930    0.83150    0.46500    1.000
    N17      N        0.10900    0.48249    0.95130    1.000
    C101     C        0.14560    0.50250    0.98260    1.000
    H73      H        0.17030    0.49880    0.04950    1.000
    C102     C        0.14530    0.52811    0.91390    1.000
    H74      H        0.16990    0.54150    0.93480    1.000
    C103     C        0.10840    0.53371    0.81390    1.000
    C104     C        0.07180    0.51370    0.78260    1.000
    H75      H        0.04710    0.51740    0.71570    1.000
    C105     C        0.07210    0.48809    0.85130    1.000
    H76      H        0.04750    0.47470    0.83030    1.000
    C106     C        0.10360    0.56010    0.72300    1.000
    C107     C        0.07700    0.57940    0.67300    1.000
    C108     C        0.10960    0.60290    0.60970    1.000
    C109     C        0.07630    0.60770    0.49970    1.000
    H77      H        0.05010    0.59520    0.48180    1.000
    C110     C        0.08210    0.63130    0.41650    1.000
    H78      H        0.05980    0.63450    0.34290    1.000
    N18      N        0.12130    0.65010    0.44330    1.000
    C111     C        0.15460    0.64530    0.55330    1.000
    H79      H        0.18080    0.65790    0.57120    1.000
    C112     C        0.14880    0.62170    0.63650    1.000
    H80      H        0.17110    0.61850    0.71010    1.000
    C113     C        0.87980    0.44800    0.29200    1.000
    H81      H        0.87940    0.46330    0.35220    1.000
    N19      N        0.02780    0.44053    0.10700    1.000
    C114     C        0.01280    0.46166    0.19770    1.000
    H82      H        0.03580    0.47550    0.22390    1.000
    C115     C        0.96330    0.46215    0.24940    1.000
    H83      H        0.95330    0.47630    0.31010    1.000
    C116     C        0.92890    0.44150    0.21020    1.000
    C117     C        0.94390    0.42040    0.11950    1.000
    H84      H        0.92090    0.40660    0.09330    1.000
    C118     C        0.99330    0.41989    0.06780    1.000
    H85      H        0.00340    0.40580    0.00710    1.000
    C119     C        0.84050    0.43360    0.27900    1.000
    H86      H        0.84340    0.41980    0.21120    1.000
    C120     C        0.79500    0.43350    0.34320    1.000
    C121     C        0.78650    0.44900    0.46390    1.000
    H87      H        0.81330    0.45850    0.50610    1.000
    C122     C        0.73800    0.45020    0.52150    1.000
    H88      H        0.73230    0.46050    0.60230    1.000
    N20      N        0.69800    0.43600    0.45850    1.000
    C123     C        0.70650    0.42050    0.33780    1.000
    H89      H        0.67980    0.41100    0.29560    1.000
    C124     C        0.75500    0.41930    0.28020    1.000
    H90      H        0.76070    0.40900    0.19940    1.000
    Cd5      Cd       0.11462    0.43827    0.05090    1.000
    C125     C        0.13070    0.58150    0.71500    1.000
    N21      N        0.10900    0.98249    0.45130    1.000
    C126     C        0.14560    0.00250    0.48260    1.000
    H91      H        0.17030    0.99880    0.54950    1.000
    C127     C        0.14530    0.02811    0.41390    1.000
    H92      H        0.16990    0.04150    0.43480    1.000
    C128     C        0.10840    0.03371    0.31390    1.000
    C129     C        0.07180    0.01370    0.28260    1.000
    H93      H        0.04710    0.01740    0.21570    1.000
    C130     C        0.07210    0.98809    0.35130    1.000
    H94      H        0.04750    0.97470    0.33030    1.000
    C131     C        0.10360    0.06010    0.22300    1.000
    C132     C        0.07700    0.07940    0.17300    1.000
    C133     C        0.10960    0.10290    0.10970    1.000
    C134     C        0.07630    0.10770    0.99970    1.000
    H95      H        0.05010    0.09520    0.98180    1.000
    C135     C        0.08210    0.13130    0.91650    1.000
    H96      H        0.05980    0.13450    0.84290    1.000
    N22      N        0.12130    0.15010    0.94330    1.000
    C136     C        0.15460    0.14530    0.05330    1.000
    H97      H        0.18080    0.15790    0.07120    1.000
    C137     C        0.14880    0.12170    0.13650    1.000
    H98      H        0.17110    0.11850    0.21010    1.000
    C138     C        0.87980    0.94800    0.79200    1.000
    H99      H        0.87940    0.96330    0.85220    1.000
    N23      N        0.02780    0.94053    0.60700    1.000
    C139     C        0.01280    0.96166    0.69770    1.000
    H100     H        0.03580    0.97550    0.72390    1.000
    C140     C        0.96330    0.96215    0.74940    1.000
    H101     H        0.95330    0.97630    0.81010    1.000
    C141     C        0.92890    0.94150    0.71020    1.000
    C142     C        0.94390    0.92040    0.61950    1.000
    H102     H        0.92090    0.90660    0.59330    1.000
    C143     C        0.99330    0.91989    0.56780    1.000
    H103     H        0.00340    0.90580    0.50710    1.000
    C144     C        0.84050    0.93360    0.77900    1.000
    H104     H        0.84340    0.91980    0.71120    1.000
    C145     C        0.79500    0.93350    0.84320    1.000
    C146     C        0.78650    0.94900    0.96390    1.000
    H105     H        0.81330    0.95850    0.00610    1.000
    C147     C        0.73800    0.95020    0.02150    1.000
    H106     H        0.73230    0.96050    0.10230    1.000
    N24      N        0.69800    0.93600    0.95850    1.000
    C148     C        0.70650    0.92050    0.83780    1.000
    H107     H        0.67980    0.91100    0.79560    1.000
    C149     C        0.75500    0.91930    0.78020    1.000
    H108     H        0.76070    0.90900    0.69940    1.000
    Cd6      Cd       0.11462    0.93827    0.55090    1.000
    C150     C        0.13070    0.08150    0.21500    1.000
    N25      N        0.60900    0.48249    0.45130    1.000
    C151     C        0.64560    0.50250    0.48260    1.000
    H109     H        0.67030    0.49880    0.54950    1.000
    C152     C        0.64530    0.52811    0.41390    1.000
    H110     H        0.66990    0.54150    0.43480    1.000
    C153     C        0.60840    0.53371    0.31390    1.000
    C154     C        0.57180    0.51370    0.28260    1.000
    H111     H        0.54710    0.51740    0.21570    1.000
    C155     C        0.57210    0.48809    0.35130    1.000
    H112     H        0.54750    0.47470    0.33030    1.000
    C156     C        0.60360    0.56010    0.22300    1.000
    C157     C        0.57700    0.57940    0.17300    1.000
    C158     C        0.60960    0.60290    0.10970    1.000
    C159     C        0.57630    0.60770    0.99970    1.000
    H113     H        0.55010    0.59520    0.98180    1.000
    C160     C        0.58210    0.63130    0.91650    1.000
    H114     H        0.55980    0.63450    0.84290    1.000
    N26      N        0.62130    0.65010    0.94330    1.000
    C161     C        0.65460    0.64530    0.05330    1.000
    H115     H        0.68080    0.65790    0.07120    1.000
    C162     C        0.64880    0.62170    0.13650    1.000
    H116     H        0.67110    0.61850    0.21010    1.000
    C163     C        0.37980    0.44800    0.79200    1.000
    H117     H        0.37940    0.46330    0.85220    1.000
    N27      N        0.52780    0.44053    0.60700    1.000
    C164     C        0.51280    0.46166    0.69770    1.000
    H118     H        0.53580    0.47550    0.72390    1.000
    C165     C        0.46330    0.46215    0.74940    1.000
    H119     H        0.45330    0.47630    0.81010    1.000
    C166     C        0.42890    0.44150    0.71020    1.000
    C167     C        0.44390    0.42040    0.61950    1.000
    H120     H        0.42090    0.40660    0.59330    1.000
    C168     C        0.49330    0.41989    0.56780    1.000
    H121     H        0.50340    0.40580    0.50710    1.000
    C169     C        0.34050    0.43360    0.77900    1.000
    H122     H        0.34340    0.41980    0.71120    1.000
    C170     C        0.29500    0.43350    0.84320    1.000
    C171     C        0.28650    0.44900    0.96390    1.000
    H123     H        0.31330    0.45850    0.00610    1.000
    C172     C        0.23800    0.45020    0.02150    1.000
    H124     H        0.23230    0.46050    0.10230    1.000
    N28      N        0.19800    0.43600    0.95850    1.000
    C173     C        0.20650    0.42050    0.83780    1.000
    H125     H        0.17980    0.41100    0.79560    1.000
    C174     C        0.25500    0.41930    0.78020    1.000
    H126     H        0.26070    0.40900    0.69940    1.000
    Cd7      Cd       0.61462    0.43827    0.55090    1.000
    C175     C        0.63070    0.58150    0.21500    1.000
    N29      N        0.60900    0.98249    0.95130    1.000
    C176     C        0.64560    0.00250    0.98260    1.000
    H127     H        0.67030    0.99880    0.04950    1.000
    C177     C        0.64530    0.02811    0.91390    1.000
    H128     H        0.66990    0.04150    0.93480    1.000
    C178     C        0.60840    0.03371    0.81390    1.000
    C179     C        0.57180    0.01370    0.78260    1.000
    H129     H        0.54710    0.01740    0.71570    1.000
    C180     C        0.57210    0.98809    0.85130    1.000
    H130     H        0.54750    0.97470    0.83030    1.000
    C181     C        0.60360    0.06010    0.72300    1.000
    C182     C        0.57700    0.07940    0.67300    1.000
    C183     C        0.60960    0.10290    0.60970    1.000
    C184     C        0.57630    0.10770    0.49970    1.000
    H131     H        0.55010    0.09520    0.48180    1.000
    C185     C        0.58210    0.13130    0.41650    1.000
    H132     H        0.55980    0.13450    0.34290    1.000
    N30      N        0.62130    0.15010    0.44330    1.000
    C186     C        0.65460    0.14530    0.55330    1.000
    H133     H        0.68080    0.15790    0.57120    1.000
    C187     C        0.64880    0.12170    0.63650    1.000
    H134     H        0.67110    0.11850    0.71010    1.000
    C188     C        0.37980    0.94800    0.29200    1.000
    H135     H        0.37940    0.96330    0.35220    1.000
    N31      N        0.52780    0.94053    0.10700    1.000
    C189     C        0.51280    0.96166    0.19770    1.000
    H136     H        0.53580    0.97550    0.22390    1.000
    C190     C        0.46330    0.96215    0.24940    1.000
    H137     H        0.45330    0.97630    0.31010    1.000
    C191     C        0.42890    0.94150    0.21020    1.000
    C192     C        0.44390    0.92040    0.11950    1.000
    H138     H        0.42090    0.90660    0.09330    1.000
    C193     C        0.49330    0.91989    0.06780    1.000
    H139     H        0.50340    0.90580    0.00710    1.000
    C194     C        0.34050    0.93360    0.27900    1.000
    H140     H        0.34340    0.91980    0.21120    1.000
    C195     C        0.29500    0.93350    0.34320    1.000
    C196     C        0.28650    0.94900    0.46390    1.000
    H141     H        0.31330    0.95850    0.50610    1.000
    C197     C        0.23800    0.95020    0.52150    1.000
    H142     H        0.23230    0.96050    0.60230    1.000
    N32      N        0.19800    0.93600    0.45850    1.000
    C198     C        0.20650    0.92050    0.33780    1.000
    H143     H        0.17980    0.91100    0.29560    1.000
    C199     C        0.25500    0.91930    0.28020    1.000
    H144     H        0.26070    0.90900    0.19940    1.000
    Cd8      Cd       0.61462    0.93827    0.05090    1.000
    C200     C        0.63070    0.08150    0.71500    1.000
    N33      N        0.85900    0.76751    0.70130    1.000
    C201     C        0.89560    0.74750    0.73260    1.000
    H145     H        0.92030    0.75120    0.79950    1.000
    C202     C        0.89530    0.72189    0.66390    1.000
    H146     H        0.91990    0.70850    0.68480    1.000
    C203     C        0.85840    0.71629    0.56390    1.000
    C204     C        0.82180    0.73630    0.53260    1.000
    H147     H        0.79710    0.73260    0.46570    1.000
    C205     C        0.82210    0.76191    0.60130    1.000
    H148     H        0.79750    0.77530    0.58030    1.000
    C206     C        0.85360    0.68990    0.47300    1.000
    C207     C        0.82700    0.67060    0.42300    1.000
    C208     C        0.85960    0.64710    0.35970    1.000
    C209     C        0.82630    0.64230    0.24970    1.000
    H149     H        0.80010    0.65480    0.23180    1.000
    C210     C        0.83210    0.61870    0.16650    1.000
    H150     H        0.80980    0.61550    0.09290    1.000
    N34      N        0.87130    0.59990    0.19330    1.000
    C211     C        0.90460    0.60470    0.30330    1.000
    H151     H        0.93080    0.59210    0.32120    1.000
    C212     C        0.89880    0.62830    0.38650    1.000
    H152     H        0.92110    0.63150    0.46010    1.000
    C213     C        0.62980    0.80200    0.04200    1.000
    H153     H        0.62940    0.78670    0.10220    1.000
    N35      N        0.77780    0.80947    0.85700    1.000
    C214     C        0.76280    0.78834    0.94770    1.000
    H154     H        0.78580    0.77450    0.97390    1.000
    C215     C        0.71330    0.78785    0.99940    1.000
    H155     H        0.70330    0.77370    0.06010    1.000
    C216     C        0.67890    0.80850    0.96020    1.000
    C217     C        0.69390    0.82960    0.86950    1.000
    H156     H        0.67090    0.84340    0.84330    1.000
    C218     C        0.74330    0.83011    0.81780    1.000
    H157     H        0.75340    0.84420    0.75710    1.000
    C219     C        0.59050    0.81640    0.02900    1.000
    H158     H        0.59340    0.83020    0.96120    1.000
    C220     C        0.54500    0.81650    0.09320    1.000
    C221     C        0.53650    0.80100    0.21390    1.000
    H159     H        0.56330    0.79150    0.25610    1.000
    C222     C        0.48800    0.79980    0.27150    1.000
    H160     H        0.48230    0.78950    0.35230    1.000
    N36      N        0.44800    0.81400    0.20850    1.000
    C223     C        0.45650    0.82950    0.08780    1.000
    H161     H        0.42980    0.83900    0.04560    1.000
    C224     C        0.50500    0.83070    0.03020    1.000
    H162     H        0.51070    0.84100    0.94940    1.000
    Cd9      Cd       0.86462    0.81173    0.80090    1.000
    C225     C        0.88070    0.66850    0.46500    1.000
    N37      N        0.85900    0.26751    0.20130    1.000
    C226     C        0.89560    0.24750    0.23260    1.000
    H163     H        0.92030    0.25120    0.29950    1.000
    C227     C        0.89530    0.22189    0.16390    1.000
    H164     H        0.91990    0.20850    0.18480    1.000
    C228     C        0.85840    0.21629    0.06390    1.000
    C229     C        0.82180    0.23630    0.03260    1.000
    H165     H        0.79710    0.23260    0.96570    1.000
    C230     C        0.82210    0.26191    0.10130    1.000
    H166     H        0.79750    0.27530    0.08030    1.000
    C231     C        0.85360    0.18990    0.97300    1.000
    C232     C        0.82700    0.17060    0.92300    1.000
    C233     C        0.85960    0.14710    0.85970    1.000
    C234     C        0.82630    0.14230    0.74970    1.000
    H167     H        0.80010    0.15480    0.73180    1.000
    C235     C        0.83210    0.11870    0.66650    1.000
    H168     H        0.80980    0.11550    0.59290    1.000
    N38      N        0.87130    0.09990    0.69330    1.000
    C236     C        0.90460    0.10470    0.80330    1.000
    H169     H        0.93080    0.09210    0.82120    1.000
    C237     C        0.89880    0.12830    0.88650    1.000
    H170     H        0.92110    0.13150    0.96010    1.000
    C238     C        0.62980    0.30200    0.54200    1.000
    H171     H        0.62940    0.28670    0.60220    1.000
    N39      N        0.77780    0.30947    0.35700    1.000
    C239     C        0.76280    0.28834    0.44770    1.000
    H172     H        0.78580    0.27450    0.47390    1.000
    C240     C        0.71330    0.28785    0.49940    1.000
    H173     H        0.70330    0.27370    0.56010    1.000
    C241     C        0.67890    0.30850    0.46020    1.000
    C242     C        0.69390    0.32960    0.36950    1.000
    H174     H        0.67090    0.34340    0.34330    1.000
    C243     C        0.74330    0.33011    0.31780    1.000
    H175     H        0.75340    0.34420    0.25710    1.000
    C244     C        0.59050    0.31640    0.52900    1.000
    H176     H        0.59340    0.33020    0.46120    1.000
    C245     C        0.54500    0.31650    0.59320    1.000
    C246     C        0.53650    0.30100    0.71390    1.000
    H177     H        0.56330    0.29150    0.75610    1.000
    C247     C        0.48800    0.29980    0.77150    1.000
    H178     H        0.48230    0.28950    0.85230    1.000
    N40      N        0.44800    0.31400    0.70850    1.000
    C248     C        0.45650    0.32950    0.58780    1.000
    H179     H        0.42980    0.33900    0.54560    1.000
    C249     C        0.50500    0.33070    0.53020    1.000
    H180     H        0.51070    0.34100    0.44940    1.000
    Cd10     Cd       0.86462    0.31173    0.30090    1.000
    C250     C        0.88070    0.16850    0.96500    1.000
    N41      N        0.35900    0.76751    0.20130    1.000
    C251     C        0.39560    0.74750    0.23260    1.000
    H181     H        0.42030    0.75120    0.29950    1.000
    C252     C        0.39530    0.72189    0.16390    1.000
    H182     H        0.41990    0.70850    0.18480    1.000
    C253     C        0.35840    0.71629    0.06390    1.000
    C254     C        0.32180    0.73630    0.03260    1.000
    H183     H        0.29710    0.73260    0.96570    1.000
    C255     C        0.32210    0.76191    0.10130    1.000
    H184     H        0.29750    0.77530    0.08030    1.000
    C256     C        0.35360    0.68990    0.97300    1.000
    C257     C        0.32700    0.67060    0.92300    1.000
    C258     C        0.35960    0.64710    0.85970    1.000
    C259     C        0.32630    0.64230    0.74970    1.000
    H185     H        0.30010    0.65480    0.73180    1.000
    C260     C        0.33210    0.61870    0.66650    1.000
    H186     H        0.30980    0.61550    0.59290    1.000
    N42      N        0.37130    0.59990    0.69330    1.000
    C261     C        0.40460    0.60470    0.80330    1.000
    H187     H        0.43080    0.59210    0.82120    1.000
    C262     C        0.39880    0.62830    0.88650    1.000
    H188     H        0.42110    0.63150    0.96010    1.000
    C263     C        0.12980    0.80200    0.54200    1.000
    H189     H        0.12940    0.78670    0.60220    1.000
    N43      N        0.27780    0.80947    0.35700    1.000
    C264     C        0.26280    0.78834    0.44770    1.000
    H190     H        0.28580    0.77450    0.47390    1.000
    C265     C        0.21330    0.78785    0.49940    1.000
    H191     H        0.20330    0.77370    0.56010    1.000
    C266     C        0.17890    0.80850    0.46020    1.000
    C267     C        0.19390    0.82960    0.36950    1.000
    H192     H        0.17090    0.84340    0.34330    1.000
    C268     C        0.24330    0.83011    0.31780    1.000
    H193     H        0.25340    0.84420    0.25710    1.000
    C269     C        0.09050    0.81640    0.52900    1.000
    H194     H        0.09340    0.83020    0.46120    1.000
    C270     C        0.04500    0.81650    0.59320    1.000
    C271     C        0.03650    0.80100    0.71390    1.000
    H195     H        0.06330    0.79150    0.75610    1.000
    C272     C        0.98800    0.79980    0.77150    1.000
    H196     H        0.98230    0.78950    0.85230    1.000
    N44      N        0.94800    0.81400    0.70850    1.000
    C273     C        0.95650    0.82950    0.58780    1.000
    H197     H        0.92980    0.83900    0.54560    1.000
    C274     C        0.00500    0.83070    0.53020    1.000
    H198     H        0.01070    0.84100    0.44940    1.000
    Cd11     Cd       0.36462    0.81173    0.30090    1.000
    C275     C        0.38070    0.66850    0.96500    1.000
    N45      N        0.35900    0.26751    0.70130    1.000
    C276     C        0.39560    0.24750    0.73260    1.000
    H199     H        0.42030    0.25120    0.79950    1.000
    C277     C        0.39530    0.22189    0.66390    1.000
    H200     H        0.41990    0.20850    0.68480    1.000
    C278     C        0.35840    0.21629    0.56390    1.000
    C279     C        0.32180    0.23630    0.53260    1.000
    H201     H        0.29710    0.23260    0.46570    1.000
    C280     C        0.32210    0.26191    0.60130    1.000
    H202     H        0.29750    0.27530    0.58030    1.000
    C281     C        0.35360    0.18990    0.47300    1.000
    C282     C        0.32700    0.17060    0.42300    1.000
    C283     C        0.35960    0.14710    0.35970    1.000
    C284     C        0.32630    0.14230    0.24970    1.000
    H203     H        0.30010    0.15480    0.23180    1.000
    C285     C        0.33210    0.11870    0.16650    1.000
    H204     H        0.30980    0.11550    0.09290    1.000
    N46      N        0.37130    0.09990    0.19330    1.000
    C286     C        0.40460    0.10470    0.30330    1.000
    H205     H        0.43080    0.09210    0.32120    1.000
    C287     C        0.39880    0.12830    0.38650    1.000
    H206     H        0.42110    0.13150    0.46010    1.000
    C288     C        0.12980    0.30200    0.04200    1.000
    H207     H        0.12940    0.28670    0.10220    1.000
    N47      N        0.27780    0.30947    0.85700    1.000
    C289     C        0.26280    0.28834    0.94770    1.000
    H208     H        0.28580    0.27450    0.97390    1.000
    C290     C        0.21330    0.28785    0.99940    1.000
    H209     H        0.20330    0.27370    0.06010    1.000
    C291     C        0.17890    0.30850    0.96020    1.000
    C292     C        0.19390    0.32960    0.86950    1.000
    H210     H        0.17090    0.34340    0.84330    1.000
    C293     C        0.24330    0.33011    0.81780    1.000
    H211     H        0.25340    0.34420    0.75710    1.000
    C294     C        0.09050    0.31640    0.02900    1.000
    H212     H        0.09340    0.33020    0.96120    1.000
    C295     C        0.04500    0.31650    0.09320    1.000
    C296     C        0.03650    0.30100    0.21390    1.000
    H213     H        0.06330    0.29150    0.25610    1.000
    C297     C        0.98800    0.29980    0.27150    1.000
    H214     H        0.98230    0.28950    0.35230    1.000
    N48      N        0.94800    0.31400    0.20850    1.000
    C298     C        0.95650    0.32950    0.08780    1.000
    H215     H        0.92980    0.33900    0.04560    1.000
    C299     C        0.00500    0.33070    0.03020    1.000
    H216     H        0.01070    0.34100    0.94940    1.000
    Cd12     Cd       0.36462    0.31173    0.80090    1.000
    C300     C        0.38070    0.16850    0.46500    1.000
    N49      N        0.39100    0.01751    0.95130    1.000
    C301     C        0.35440    0.99750    0.98260    1.000
    H217     H        0.32970    0.00120    0.04950    1.000
    C302     C        0.35470    0.97189    0.91390    1.000
    H218     H        0.33010    0.95850    0.93480    1.000
    C303     C        0.39160    0.96629    0.81390    1.000
    C304     C        0.42820    0.98630    0.78260    1.000
    H219     H        0.45290    0.98260    0.71570    1.000
    C305     C        0.42790    0.01191    0.85130    1.000
    H220     H        0.45250    0.02530    0.83030    1.000
    C306     C        0.39640    0.93990    0.72300    1.000
    C307     C        0.42300    0.92060    0.67300    1.000
    C308     C        0.39040    0.89710    0.60970    1.000
    C309     C        0.42370    0.89230    0.49970    1.000
    H221     H        0.44990    0.90480    0.48180    1.000
    C310     C        0.41790    0.86870    0.41650    1.000
    H222     H        0.44020    0.86550    0.34290    1.000
    N50      N        0.37870    0.84990    0.44330    1.000
    C311     C        0.34540    0.85470    0.55330    1.000
    H223     H        0.31920    0.84210    0.57120    1.000
    C312     C        0.35120    0.87830    0.63650    1.000
    H224     H        0.32890    0.88150    0.71010    1.000
    C313     C        0.62020    0.05200    0.29200    1.000
    H225     H        0.62060    0.03670    0.35220    1.000
    N51      N        0.47220    0.05947    0.10700    1.000
    C314     C        0.48720    0.03834    0.19770    1.000
    H226     H        0.46420    0.02450    0.22390    1.000
    C315     C        0.53670    0.03785    0.24940    1.000
    H227     H        0.54670    0.02370    0.31010    1.000
    C316     C        0.57110    0.05850    0.21020    1.000
    C317     C        0.55610    0.07960    0.11950    1.000
    H228     H        0.57910    0.09340    0.09330    1.000
    C318     C        0.50670    0.08011    0.06780    1.000
    H229     H        0.49660    0.09420    0.00710    1.000
    C319     C        0.65950    0.06640    0.27900    1.000
    H230     H        0.65660    0.08020    0.21120    1.000
    C320     C        0.70500    0.06650    0.34320    1.000
    C321     C        0.71350    0.05100    0.46390    1.000
    H231     H        0.68670    0.04150    0.50610    1.000
    C322     C        0.76200    0.04980    0.52150    1.000
    H232     H        0.76770    0.03950    0.60230    1.000
    N52      N        0.80200    0.06400    0.45850    1.000
    C323     C        0.79350    0.07950    0.33780    1.000
    H233     H        0.82020    0.08900    0.29560    1.000
    C324     C        0.74500    0.08070    0.28020    1.000
    H234     H        0.73930    0.09100    0.19940    1.000
    Cd13     Cd       0.38538    0.06173    0.05090    1.000
    C325     C        0.36930    0.91850    0.71500    1.000
    N53      N        0.39100    0.51751    0.45130    1.000
    C326     C        0.35440    0.49750    0.48260    1.000
    H235     H        0.32970    0.50120    0.54950    1.000
    C327     C        0.35470    0.47189    0.41390    1.000
    H236     H        0.33010    0.45850    0.43480    1.000
    C328     C        0.39160    0.46629    0.31390    1.000
    C329     C        0.42820    0.48630    0.28260    1.000
    H237     H        0.45290    0.48260    0.21570    1.000
    C330     C        0.42790    0.51191    0.35130    1.000
    H238     H        0.45250    0.52530    0.33030    1.000
    C331     C        0.39640    0.43990    0.22300    1.000
    C332     C        0.42300    0.42060    0.17300    1.000
    C333     C        0.39040    0.39710    0.10970    1.000
    C334     C        0.42370    0.39230    0.99970    1.000
    H239     H        0.44990    0.40480    0.98180    1.000
    C335     C        0.41790    0.36870    0.91650    1.000
    H240     H        0.44020    0.36550    0.84290    1.000
    N54      N        0.37870    0.34990    0.94330    1.000
    C336     C        0.34540    0.35470    0.05330    1.000
    H241     H        0.31920    0.34210    0.07120    1.000
    C337     C        0.35120    0.37830    0.13650    1.000
    H242     H        0.32890    0.38150    0.21010    1.000
    C338     C        0.62020    0.55200    0.79200    1.000
    H243     H        0.62060    0.53670    0.85220    1.000
    N55      N        0.47220    0.55947    0.60700    1.000
    C339     C        0.48720    0.53834    0.69770    1.000
    H244     H        0.46420    0.52450    0.72390    1.000
    C340     C        0.53670    0.53785    0.74940    1.000
    H245     H        0.54670    0.52370    0.81010    1.000
    C341     C        0.57110    0.55850    0.71020    1.000
    C342     C        0.55610    0.57960    0.61950    1.000
    H246     H        0.57910    0.59340    0.59330    1.000
    C343     C        0.50670    0.58011    0.56780    1.000
    H247     H        0.49660    0.59420    0.50710    1.000
    C344     C        0.65950    0.56640    0.77900    1.000
    H248     H        0.65660    0.58020    0.71120    1.000
    C345     C        0.70500    0.56650    0.84320    1.000
    C346     C        0.71350    0.55100    0.96390    1.000
    H249     H        0.68670    0.54150    0.00610    1.000
    C347     C        0.76200    0.54980    0.02150    1.000
    H250     H        0.76770    0.53950    0.10230    1.000
    N56      N        0.80200    0.56400    0.95850    1.000
    C348     C        0.79350    0.57950    0.83780    1.000
    H251     H        0.82020    0.58900    0.79560    1.000
    C349     C        0.74500    0.58070    0.78020    1.000
    H252     H        0.73930    0.59100    0.69940    1.000
    Cd14     Cd       0.38538    0.56173    0.55090    1.000
    C350     C        0.36930    0.41850    0.21500    1.000
    N57      N        0.89100    0.01751    0.45130    1.000
    C351     C        0.85440    0.99750    0.48260    1.000
    H253     H        0.82970    0.00120    0.54950    1.000
    C352     C        0.85470    0.97189    0.41390    1.000
    H254     H        0.83010    0.95850    0.43480    1.000
    C353     C        0.89160    0.96629    0.31390    1.000
    C354     C        0.92820    0.98630    0.28260    1.000
    H255     H        0.95290    0.98260    0.21570    1.000
    C355     C        0.92790    0.01191    0.35130    1.000
    H256     H        0.95250    0.02530    0.33030    1.000
    C356     C        0.89640    0.93990    0.22300    1.000
    C357     C        0.92300    0.92060    0.17300    1.000
    C358     C        0.89040    0.89710    0.10970    1.000
    C359     C        0.92370    0.89230    0.99970    1.000
    H257     H        0.94990    0.90480    0.98180    1.000
    C360     C        0.91790    0.86870    0.91650    1.000
    H258     H        0.94020    0.86550    0.84290    1.000
    N58      N        0.87870    0.84990    0.94330    1.000
    C361     C        0.84540    0.85470    0.05330    1.000
    H259     H        0.81920    0.84210    0.07120    1.000
    C362     C        0.85120    0.87830    0.13650    1.000
    H260     H        0.82890    0.88150    0.21010    1.000
    C363     C        0.12020    0.05200    0.79200    1.000
    H261     H        0.12060    0.03670    0.85220    1.000
    N59      N        0.97220    0.05947    0.60700    1.000
    C364     C        0.98720    0.03834    0.69770    1.000
    H262     H        0.96420    0.02450    0.72390    1.000
    C365     C        0.03670    0.03785    0.74940    1.000
    H263     H        0.04670    0.02370    0.81010    1.000
    C366     C        0.07110    0.05850    0.71020    1.000
    C367     C        0.05610    0.07960    0.61950    1.000
    H264     H        0.07910    0.09340    0.59330    1.000
    C368     C        0.00670    0.08011    0.56780    1.000
    H265     H        0.99660    0.09420    0.50710    1.000
    C369     C        0.15950    0.06640    0.77900    1.000
    H266     H        0.15660    0.08020    0.71120    1.000
    C370     C        0.20500    0.06650    0.84320    1.000
    C371     C        0.21350    0.05100    0.96390    1.000
    H267     H        0.18670    0.04150    0.00610    1.000
    C372     C        0.26200    0.04980    0.02150    1.000
    H268     H        0.26770    0.03950    0.10230    1.000
    N60      N        0.30200    0.06400    0.95850    1.000
    C373     C        0.29350    0.07950    0.83780    1.000
    H269     H        0.32020    0.08900    0.79560    1.000
    C374     C        0.24500    0.08070    0.78020    1.000
    H270     H        0.23930    0.09100    0.69940    1.000
    Cd15     Cd       0.88538    0.06173    0.55090    1.000
    C375     C        0.86930    0.91850    0.21500    1.000
    N61      N        0.89100    0.51751    0.95130    1.000
    C376     C        0.85440    0.49750    0.98260    1.000
    H271     H        0.82970    0.50120    0.04950    1.000
    C377     C        0.85470    0.47189    0.91390    1.000
    H272     H        0.83010    0.45850    0.93480    1.000
    C378     C        0.89160    0.46629    0.81390    1.000
    C379     C        0.92820    0.48630    0.78260    1.000
    H273     H        0.95290    0.48260    0.71570    1.000
    C380     C        0.92790    0.51191    0.85130    1.000
    H274     H        0.95250    0.52530    0.83030    1.000
    C381     C        0.89640    0.43990    0.72300    1.000
    C382     C        0.92300    0.42060    0.67300    1.000
    C383     C        0.89040    0.39710    0.60970    1.000
    C384     C        0.92370    0.39230    0.49970    1.000
    H275     H        0.94990    0.40480    0.48180    1.000
    C385     C        0.91790    0.36870    0.41650    1.000
    H276     H        0.94020    0.36550    0.34290    1.000
    N62      N        0.87870    0.34990    0.44330    1.000
    C386     C        0.84540    0.35470    0.55330    1.000
    H277     H        0.81920    0.34210    0.57120    1.000
    C387     C        0.85120    0.37830    0.63650    1.000
    H278     H        0.82890    0.38150    0.71010    1.000
    C388     C        0.12020    0.55200    0.29200    1.000
    H279     H        0.12060    0.53670    0.35220    1.000
    N63      N        0.97220    0.55947    0.10700    1.000
    C389     C        0.98720    0.53834    0.19770    1.000
    H280     H        0.96420    0.52450    0.22390    1.000
    C390     C        0.03670    0.53785    0.24940    1.000
    H281     H        0.04670    0.52370    0.31010    1.000
    C391     C        0.07110    0.55850    0.21020    1.000
    C392     C        0.05610    0.57960    0.11950    1.000
    H282     H        0.07910    0.59340    0.09330    1.000
    C393     C        0.00670    0.58011    0.06780    1.000
    H283     H        0.99660    0.59420    0.00710    1.000
    C394     C        0.15950    0.56640    0.27900    1.000
    H284     H        0.15660    0.58020    0.21120    1.000
    C395     C        0.20500    0.56650    0.34320    1.000
    C396     C        0.21350    0.55100    0.46390    1.000
    H285     H        0.18670    0.54150    0.50610    1.000
    C397     C        0.26200    0.54980    0.52150    1.000
    H286     H        0.26770    0.53950    0.60230    1.000
    N64      N        0.30200    0.56400    0.45850    1.000
    C398     C        0.29350    0.57950    0.33780    1.000
    H287     H        0.32020    0.58900    0.29560    1.000
    C399     C        0.24500    0.58070    0.28020    1.000
    H288     H        0.23930    0.59100    0.19940    1.000
    Cd16     Cd       0.88538    0.56173    0.05090    1.000
    C400     C        0.86930    0.41850    0.71500    1.000
