# CIF file generated by openbabel 3.1.0, see https://openbabel.org
data_I
_chemical_name_common 'image0'
_cell_length_a 15.858
_cell_length_b 10.522
_cell_length_c 20.97
_cell_angle_alpha 90
_cell_angle_beta 107.52
_cell_angle_gamma 90
_space_group_name_H-M_alt 'P 1'
_space_group_name_Hall 'P 1'
loop_
    _symmetry_equiv_pos_as_xyz
    x,y,z
loop_
    _atom_site_label
    _atom_site_type_symbol
    _atom_site_fract_x
    _atom_site_fract_y
    _atom_site_fract_z
    _atom_site_occupancy
    C1       C        0.74870    0.72790    0.75510    1.000
    C2       C        0.69650    0.75270    0.68900    1.000
    H1       H        0.70680    0.70810    0.65380    1.000
    C3       C        0.62940    0.84370    0.67600    1.000
    C4       C        0.61330    0.91380    0.72720    1.000
    H2       H        0.56850    0.97420    0.71820    1.000
    C5       C        0.66620    0.89120    0.79200    1.000
    C6       C        0.73120    0.80020    0.80630    1.000
    H3       H        0.76430    0.78600    0.85050    1.000
    C7       C        0.65400    0.96830    0.84950    1.000
    C8       C        0.57600    0.86650    0.60400    1.000
    C9       C        0.86460    0.60150    0.83560    1.000
    H4       H        0.87950    0.51190    0.83750    1.000
    H5       H        0.82960    0.61580    0.86570    1.000
    C10      C        0.94950    0.67850    0.85970    1.000
    C11      C        0.96520    0.78480    0.82720    1.000
    H6       H        0.92300    0.81050    0.78800    1.000
    C12      C        0.04170    0.85430    0.85110    1.000
    H7       H        0.05100    0.92570    0.82790    1.000
    C13      C        0.10460    0.81780    0.90940    1.000
    C14      C        0.09140    0.70980    0.94140    1.000
    H8       H        0.13460    0.68300    0.97980    1.000
    C15      C        0.01500    0.64050    0.91740    1.000
    H9       H        0.00690    0.56740    0.93980    1.000
    C16      C        0.18730    0.89300    0.93730    1.000
    C17      C        0.83970    0.57770    0.71380    1.000
    H10      H        0.90050    0.54960    0.73160    1.000
    H11      H        0.83780    0.64320    0.68090    1.000
    C18      C        0.78310    0.46610    0.67940    1.000
    C19      C        0.70550    0.43210    0.69190    1.000
    H12      H        0.68770    0.47550    0.72430    1.000
    C20      C        0.65360    0.33400    0.65670    1.000
    H13      H        0.60120    0.31300    0.66550    1.000
    C21      C        0.67860    0.26790    0.60940    1.000
    C22      C        0.61940    0.16790    0.56900    1.000
    C23      C        0.75870    0.29810    0.59760    1.000
    H14      H        0.77780    0.25110    0.56700    1.000
    C24      C        0.80920    0.39840    0.63170    1.000
    H15      H        0.86110    0.42050    0.62250    1.000
    N1       N        0.81160    0.63270    0.76810    1.000
    O1       O        0.24130    0.86560    0.98970    1.000
    O2       O        0.19540    0.98980    0.90110    1.000
    O3       O        0.60560    0.06570    0.83790    1.000
    O4       O        0.50240    0.92140    0.59300    1.000
    O5       O        0.60840    0.83070    0.55940    1.000
    O6       O        0.68890    0.92920    0.90840    1.000
    O7       O        0.54030    0.17010    0.56640    1.000
    O8       O        0.65260    0.08740    0.53860    1.000
    Sm1      Sm       0.39932    0.07927    0.54608    1.000
    C25      C        0.25130    0.72790    0.74490    1.000
    C26      C        0.30350    0.75270    0.81100    1.000
    H16      H        0.29320    0.70810    0.84620    1.000
    C27      C        0.37060    0.84370    0.82400    1.000
    C28      C        0.38670    0.91380    0.77280    1.000
    H17      H        0.43150    0.97420    0.78180    1.000
    C29      C        0.33380    0.89120    0.70800    1.000
    C30      C        0.26880    0.80020    0.69370    1.000
    H18      H        0.23570    0.78600    0.64950    1.000
    C31      C        0.34600    0.96830    0.65050    1.000
    C32      C        0.42400    0.86650    0.89600    1.000
    C33      C        0.13540    0.60150    0.66440    1.000
    H19      H        0.12050    0.51190    0.66250    1.000
    H20      H        0.17040    0.61580    0.63430    1.000
    C34      C        0.05050    0.67850    0.64030    1.000
    C35      C        0.03480    0.78480    0.67280    1.000
    H21      H        0.07700    0.81050    0.71200    1.000
    C36      C        0.95830    0.85430    0.64890    1.000
    H22      H        0.94900    0.92570    0.67210    1.000
    C37      C        0.89540    0.81780    0.59060    1.000
    C38      C        0.90860    0.70980    0.55860    1.000
    H23      H        0.86540    0.68300    0.52020    1.000
    C39      C        0.98500    0.64050    0.58260    1.000
    H24      H        0.99310    0.56740    0.56020    1.000
    C40      C        0.81270    0.89300    0.56270    1.000
    C41      C        0.16030    0.57770    0.78620    1.000
    H25      H        0.09950    0.54960    0.76840    1.000
    H26      H        0.16220    0.64320    0.81910    1.000
    C42      C        0.21690    0.46610    0.82060    1.000
    C43      C        0.29450    0.43210    0.80810    1.000
    H27      H        0.31230    0.47550    0.77570    1.000
    C44      C        0.34640    0.33400    0.84330    1.000
    H28      H        0.39880    0.31300    0.83450    1.000
    C45      C        0.32140    0.26790    0.89060    1.000
    C46      C        0.38060    0.16790    0.93100    1.000
    C47      C        0.24130    0.29810    0.90240    1.000
    H29      H        0.22220    0.25110    0.93300    1.000
    C48      C        0.19080    0.39840    0.86830    1.000
    H30      H        0.13890    0.42050    0.87750    1.000
    N2       N        0.18840    0.63270    0.73190    1.000
    O9       O        0.75870    0.86560    0.51030    1.000
    O10      O        0.80460    0.98980    0.59890    1.000
    O11      O        0.39440    0.06570    0.66210    1.000
    O12      O        0.49760    0.92140    0.90700    1.000
    O13      O        0.39160    0.83070    0.94060    1.000
    O14      O        0.31110    0.92920    0.59160    1.000
    O15      O        0.45970    0.17010    0.93360    1.000
    O16      O        0.34740    0.08740    0.96140    1.000
    Sm2      Sm       0.60068    0.07927    0.95392    1.000
    C49      C        0.25130    0.27210    0.24490    1.000
    C50      C        0.30350    0.24730    0.31100    1.000
    H31      H        0.29320    0.29190    0.34620    1.000
    C51      C        0.37060    0.15630    0.32400    1.000
    C52      C        0.38670    0.08620    0.27280    1.000
    H32      H        0.43150    0.02580    0.28180    1.000
    C53      C        0.33380    0.10880    0.20800    1.000
    C54      C        0.26880    0.19980    0.19370    1.000
    H33      H        0.23570    0.21400    0.14950    1.000
    C55      C        0.34600    0.03170    0.15050    1.000
    C56      C        0.42400    0.13350    0.39600    1.000
    C57      C        0.13540    0.39850    0.16440    1.000
    H34      H        0.12050    0.48810    0.16250    1.000
    H35      H        0.17040    0.38420    0.13430    1.000
    C58      C        0.05050    0.32150    0.14030    1.000
    C59      C        0.03480    0.21520    0.17280    1.000
    H36      H        0.07700    0.18950    0.21200    1.000
    C60      C        0.95830    0.14570    0.14890    1.000
    H37      H        0.94900    0.07430    0.17210    1.000
    C61      C        0.89540    0.18220    0.09060    1.000
    C62      C        0.90860    0.29020    0.05860    1.000
    H38      H        0.86540    0.31700    0.02020    1.000
    C63      C        0.98500    0.35950    0.08260    1.000
    H39      H        0.99310    0.43260    0.06020    1.000
    C64      C        0.81270    0.10700    0.06270    1.000
    C65      C        0.16030    0.42230    0.28620    1.000
    H40      H        0.09950    0.45040    0.26840    1.000
    H41      H        0.16220    0.35680    0.31910    1.000
    C66      C        0.21690    0.53390    0.32060    1.000
    C67      C        0.29450    0.56790    0.30810    1.000
    H42      H        0.31230    0.52450    0.27570    1.000
    C68      C        0.34640    0.66600    0.34330    1.000
    H43      H        0.39880    0.68700    0.33450    1.000
    C69      C        0.32140    0.73210    0.39060    1.000
    C70      C        0.38060    0.83210    0.43100    1.000
    C71      C        0.24130    0.70190    0.40240    1.000
    H44      H        0.22220    0.74890    0.43300    1.000
    C72      C        0.19080    0.60160    0.36830    1.000
    H45      H        0.13890    0.57950    0.37750    1.000
    N3       N        0.18840    0.36730    0.23190    1.000
    O17      O        0.75870    0.13440    0.01030    1.000
    O18      O        0.80460    0.01020    0.09890    1.000
    O19      O        0.39440    0.93430    0.16210    1.000
    O20      O        0.49760    0.07860    0.40700    1.000
    O21      O        0.39160    0.16930    0.44060    1.000
    O22      O        0.31110    0.07080    0.09160    1.000
    O23      O        0.45970    0.82990    0.43360    1.000
    O24      O        0.34740    0.91260    0.46140    1.000
    Sm3      Sm       0.60068    0.92073    0.45392    1.000
    C73      C        0.74870    0.27210    0.25510    1.000
    C74      C        0.69650    0.24730    0.18900    1.000
    H46      H        0.70680    0.29190    0.15380    1.000
    C75      C        0.62940    0.15630    0.17600    1.000
    C76      C        0.61330    0.08620    0.22720    1.000
    H47      H        0.56850    0.02580    0.21820    1.000
    C77      C        0.66620    0.10880    0.29200    1.000
    C78      C        0.73120    0.19980    0.30630    1.000
    H48      H        0.76430    0.21400    0.35050    1.000
    C79      C        0.65400    0.03170    0.34950    1.000
    C80      C        0.57600    0.13350    0.10400    1.000
    C81      C        0.86460    0.39850    0.33560    1.000
    H49      H        0.87950    0.48810    0.33750    1.000
    H50      H        0.82960    0.38420    0.36570    1.000
    C82      C        0.94950    0.32150    0.35970    1.000
    C83      C        0.96520    0.21520    0.32720    1.000
    H51      H        0.92300    0.18950    0.28800    1.000
    C84      C        0.04170    0.14570    0.35110    1.000
    H52      H        0.05100    0.07430    0.32790    1.000
    C85      C        0.10460    0.18220    0.40940    1.000
    C86      C        0.09140    0.29020    0.44140    1.000
    H53      H        0.13460    0.31700    0.47980    1.000
    C87      C        0.01500    0.35950    0.41740    1.000
    H54      H        0.00690    0.43260    0.43980    1.000
    C88      C        0.18730    0.10700    0.43730    1.000
    C89      C        0.83970    0.42230    0.21380    1.000
    H55      H        0.90050    0.45040    0.23160    1.000
    H56      H        0.83780    0.35680    0.18090    1.000
    C90      C        0.78310    0.53390    0.17940    1.000
    C91      C        0.70550    0.56790    0.19190    1.000
    H57      H        0.68770    0.52450    0.22430    1.000
    C92      C        0.65360    0.66600    0.15670    1.000
    H58      H        0.60120    0.68700    0.16550    1.000
    C93      C        0.67860    0.73210    0.10940    1.000
    C94      C        0.61940    0.83210    0.06900    1.000
    C95      C        0.75870    0.70190    0.09760    1.000
    H59      H        0.77780    0.74890    0.06700    1.000
    C96      C        0.80920    0.60160    0.13170    1.000
    H60      H        0.86110    0.57950    0.12250    1.000
    N4       N        0.81160    0.36730    0.26810    1.000
    O25      O        0.24130    0.13440    0.48970    1.000
    O26      O        0.19540    0.01020    0.40110    1.000
    O27      O        0.60560    0.93430    0.33790    1.000
    O28      O        0.50240    0.07860    0.09300    1.000
    O29      O        0.60840    0.16930    0.05940    1.000
    O30      O        0.68890    0.07080    0.40840    1.000
    O31      O        0.54030    0.82990    0.06640    1.000
    O32      O        0.65260    0.91260    0.03860    1.000
    Sm4      Sm       0.39932    0.92073    0.04608    1.000
