# CIF file generated by openbabel 3.1.0, see https://openbabel.org
data_I
_chemical_name_common 'image0'
_cell_length_a 10.7621
_cell_length_b 21.2484
_cell_length_c 15.5667
_cell_angle_alpha 90
_cell_angle_beta 102.881
_cell_angle_gamma 90
_space_group_name_H-M_alt 'P 1'
_space_group_name_Hall 'P 1'
loop_
    _symmetry_equiv_pos_as_xyz
    x,y,z
loop_
    _atom_site_label
    _atom_site_type_symbol
    _atom_site_fract_x
    _atom_site_fract_y
    _atom_site_fract_z
    _atom_site_occupancy
    C1       C        0.91827    0.29299    0.01598    1.000
    H1       H        0.89790    0.25040    0.01300    1.000
    C2       C        0.03900    0.37928    0.09123    1.000
    H2       H        0.09870    0.39490    0.13910    1.000
    C3       C        0.89230    0.39635    0.95176    1.000
    H3       H        0.85370    0.42350    0.90680    1.000
    C4       C        0.85999    0.33323    0.94797    1.000
    C5       C        0.98280    0.41902    0.02306    1.000
    O1       O        0.03280    0.21790    0.16309    1.000
    O2       O        0.14232    0.30138    0.22665    1.000
    C6       C        0.00601    0.31602    0.08771    1.000
    C7       C        0.06390    0.27351    0.16419    1.000
    N1       N        0.02326    0.48334    0.03240    1.000
    O3       O        0.76566    0.25101    0.85599    1.000
    C8       C        0.76230    0.30985    0.87001    1.000
    O4       O        0.68839    0.34842    0.82552    1.000
    C9       C        0.41827    0.79299    0.01598    1.000
    H4       H        0.39790    0.75040    0.01300    1.000
    C10      C        0.53900    0.87928    0.09123    1.000
    H5       H        0.59870    0.89490    0.13910    1.000
    C11      C        0.39230    0.89635    0.95176    1.000
    H6       H        0.35370    0.92350    0.90680    1.000
    C12      C        0.35999    0.83323    0.94797    1.000
    C13      C        0.48280    0.91902    0.02306    1.000
    O5       O        0.53280    0.71790    0.16309    1.000
    O6       O        0.64232    0.80138    0.22665    1.000
    C14      C        0.50601    0.81602    0.08771    1.000
    C15      C        0.56390    0.77351    0.16419    1.000
    N2       N        0.52326    0.98334    0.03240    1.000
    O7       O        0.26566    0.75101    0.85599    1.000
    C16      C        0.26230    0.80985    0.87001    1.000
    O8       O        0.18839    0.84842    0.82552    1.000
    C17      C        0.08173    0.29299    0.48402    1.000
    H7       H        0.10210    0.25040    0.48700    1.000
    C18      C        0.96100    0.37928    0.40877    1.000
    H8       H        0.90130    0.39490    0.36090    1.000
    C19      C        0.10770    0.39635    0.54824    1.000
    H9       H        0.14630    0.42350    0.59320    1.000
    C20      C        0.14001    0.33323    0.55203    1.000
    C21      C        0.01720    0.41902    0.47694    1.000
    O9       O        0.96720    0.21790    0.33691    1.000
    O10      O        0.85768    0.30138    0.27335    1.000
    C22      C        0.99399    0.31602    0.41229    1.000
    C23      C        0.93610    0.27351    0.33581    1.000
    N3       N        0.97674    0.48334    0.46760    1.000
    O11      O        0.23434    0.25101    0.64401    1.000
    C24      C        0.23770    0.30985    0.62999    1.000
    O12      O        0.31161    0.34842    0.67448    1.000
    C25      C        0.58173    0.79299    0.48402    1.000
    H10      H        0.60210    0.75040    0.48700    1.000
    C26      C        0.46100    0.87928    0.40877    1.000
    H11      H        0.40130    0.89490    0.36090    1.000
    C27      C        0.60770    0.89635    0.54824    1.000
    H12      H        0.64630    0.92350    0.59320    1.000
    C28      C        0.64001    0.83323    0.55203    1.000
    C29      C        0.51720    0.91902    0.47694    1.000
    O13      O        0.46720    0.71790    0.33691    1.000
    O14      O        0.35768    0.80138    0.27335    1.000
    C30      C        0.49399    0.81602    0.41229    1.000
    C31      C        0.43610    0.77351    0.33581    1.000
    N4       N        0.47674    0.98334    0.46760    1.000
    O15      O        0.73434    0.75101    0.64401    1.000
    C32      C        0.73770    0.80985    0.62999    1.000
    O16      O        0.81161    0.84842    0.67448    1.000
    C33      C        0.08173    0.70701    0.98402    1.000
    H13      H        0.10210    0.74960    0.98700    1.000
    C34      C        0.96100    0.62072    0.90877    1.000
    H14      H        0.90130    0.60510    0.86090    1.000
    C35      C        0.10770    0.60365    0.04824    1.000
    H15      H        0.14630    0.57650    0.09320    1.000
    C36      C        0.14001    0.66677    0.05203    1.000
    C37      C        0.01720    0.58098    0.97694    1.000
    O17      O        0.96720    0.78210    0.83691    1.000
    O18      O        0.85768    0.69862    0.77335    1.000
    C38      C        0.99399    0.68398    0.91229    1.000
    C39      C        0.93610    0.72649    0.83581    1.000
    N5       N        0.97674    0.51666    0.96760    1.000
    O19      O        0.23434    0.74899    0.14401    1.000
    C40      C        0.23770    0.69015    0.12999    1.000
    O20      O        0.31161    0.65158    0.17448    1.000
    C41      C        0.58173    0.20701    0.98402    1.000
    H16      H        0.60210    0.24960    0.98700    1.000
    C42      C        0.46100    0.12072    0.90877    1.000
    H17      H        0.40130    0.10510    0.86090    1.000
    C43      C        0.60770    0.10365    0.04824    1.000
    H18      H        0.64630    0.07650    0.09320    1.000
    C44      C        0.64001    0.16677    0.05203    1.000
    C45      C        0.51720    0.08098    0.97694    1.000
    O21      O        0.46720    0.28210    0.83691    1.000
    O22      O        0.35768    0.19862    0.77335    1.000
    C46      C        0.49399    0.18398    0.91229    1.000
    C47      C        0.43610    0.22649    0.83581    1.000
    N6       N        0.47674    0.01666    0.96760    1.000
    O23      O        0.73434    0.24899    0.14401    1.000
    C48      C        0.73770    0.19015    0.12999    1.000
    O24      O        0.81161    0.15158    0.17448    1.000
    C49      C        0.91827    0.70701    0.51598    1.000
    H19      H        0.89790    0.74960    0.51300    1.000
    C50      C        0.03900    0.62072    0.59123    1.000
    H20      H        0.09870    0.60510    0.63910    1.000
    C51      C        0.89230    0.60365    0.45176    1.000
    H21      H        0.85370    0.57650    0.40680    1.000
    C52      C        0.85999    0.66677    0.44797    1.000
    C53      C        0.98280    0.58098    0.52306    1.000
    O25      O        0.03280    0.78210    0.66309    1.000
    O26      O        0.14232    0.69862    0.72665    1.000
    C54      C        0.00601    0.68398    0.58771    1.000
    C55      C        0.06390    0.72649    0.66419    1.000
    N7       N        0.02326    0.51666    0.53240    1.000
    O27      O        0.76566    0.74899    0.35599    1.000
    C56      C        0.76230    0.69015    0.37001    1.000
    O28      O        0.68839    0.65158    0.32552    1.000
    C57      C        0.41827    0.20701    0.51598    1.000
    H22      H        0.39790    0.24960    0.51300    1.000
    C58      C        0.53900    0.12072    0.59123    1.000
    H23      H        0.59870    0.10510    0.63910    1.000
    C59      C        0.39230    0.10365    0.45176    1.000
    H24      H        0.35370    0.07650    0.40680    1.000
    C60      C        0.35999    0.16677    0.44797    1.000
    C61      C        0.48280    0.08098    0.52306    1.000
    O29      O        0.53280    0.28210    0.66309    1.000
    O30      O        0.64232    0.19862    0.72665    1.000
    C62      C        0.50601    0.18398    0.58771    1.000
    C63      C        0.56390    0.22649    0.66419    1.000
    N8       N        0.52326    0.01666    0.53240    1.000
    O31      O        0.26566    0.24899    0.35599    1.000
    C64      C        0.26230    0.19015    0.37001    1.000
    O32      O        0.18839    0.15158    0.32552    1.000
    Mg1      Mg       0.00000    0.14860    0.25000    1.000
    Mg2      Mg       0.50000    0.64860    0.25000    1.000
    Mg3      Mg       0.00000    0.85140    0.75000    1.000
    Mg4      Mg       0.50000    0.35140    0.75000    1.000
