# CIF file generated by openbabel 3.1.0, see https://openbabel.org
data_I
_chemical_name_common 'image0'
_cell_length_a 15.1153
_cell_length_b 14.8786
_cell_length_c 21.8613
_cell_angle_alpha 90
_cell_angle_beta 90.895
_cell_angle_gamma 90
_space_group_name_H-M_alt 'P 1'
_space_group_name_Hall 'P 1'
loop_
    _symmetry_equiv_pos_as_xyz
    x,y,z
loop_
    _atom_site_label
    _atom_site_type_symbol
    _atom_site_fract_x
    _atom_site_fract_y
    _atom_site_fract_z
    _atom_site_occupancy
    Zn1      Zn       0.27393    0.31487    0.37613    1.000
    Na1      Na       0.25283    0.37308    0.51787    1.000
    C1       C        0.48110    0.26550    0.50509    1.000
    C2       C        0.47490    0.26000    0.56897    1.000
    C3       C        0.54950    0.27530    0.60501    1.000
    H1       H        0.54560    0.27090    0.64730    1.000
    C4       C        0.62880    0.29700    0.57940    1.000
    H2       H        0.67780    0.30840    0.60440    1.000
    C5       C        0.63620    0.30200    0.51690    1.000
    H3       H        0.68990    0.31660    0.49930    1.000
    C6       C        0.56260    0.28490    0.48057    1.000
    C7       C        0.40440    0.24980    0.46126    1.000
    C8       C        0.38980    0.23560    0.59998    1.000
    C9       C        0.61070    0.22750    0.38422    1.000
    C10      C        0.63620    0.14550    0.40848    1.000
    H4       H        0.62530    0.13210    0.44920    1.000
    C11      C        0.67850    0.08290    0.37134    1.000
    C12      C        0.69420    0.10400    0.31076    1.000
    H5       H        0.72260    0.06240    0.28600    1.000
    C13      C        0.66830    0.18620    0.28642    1.000
    C14      C        0.62690    0.24860    0.32379    1.000
    H6       H        0.61030    0.30440    0.30820    1.000
    C15      C        0.70800    0.99370    0.39727    1.000
    C16      C        0.68870    0.20840    0.22065    1.000
    O1       O        0.38610    0.17284    0.44485    1.000
    O2       O        0.36543    0.32183    0.44342    1.000
    O3       O        0.31769    0.24174    0.56981    1.000
    O4       O        0.39250    0.20950    0.65381    1.000
    O5       O        0.56704    0.29337    0.41714    1.000
    O6       O        0.74778    0.94266    0.36082    1.000
    O7       O        0.69250    0.97630    0.45103    1.000
    O8       O        0.71250    0.14840    0.18594    1.000
    O9       O        0.68000    0.29021    0.20503    1.000
    Zn2      Zn       0.77393    0.81487    0.37613    1.000
    Na2      Na       0.75283    0.87308    0.51787    1.000
    C17      C        0.98110    0.76550    0.50509    1.000
    C18      C        0.97490    0.76000    0.56897    1.000
    C19      C        0.04950    0.77530    0.60501    1.000
    H7       H        0.04560    0.77090    0.64730    1.000
    C20      C        0.12880    0.79700    0.57940    1.000
    H8       H        0.17780    0.80840    0.60440    1.000
    C21      C        0.13620    0.80200    0.51690    1.000
    H9       H        0.18990    0.81660    0.49930    1.000
    C22      C        0.06260    0.78490    0.48057    1.000
    C23      C        0.90440    0.74980    0.46126    1.000
    C24      C        0.88980    0.73560    0.59998    1.000
    C25      C        0.11070    0.72750    0.38422    1.000
    C26      C        0.13620    0.64550    0.40848    1.000
    H10      H        0.12530    0.63210    0.44920    1.000
    C27      C        0.17850    0.58290    0.37134    1.000
    C28      C        0.19420    0.60400    0.31076    1.000
    H11      H        0.22260    0.56240    0.28600    1.000
    C29      C        0.16830    0.68620    0.28642    1.000
    C30      C        0.12690    0.74860    0.32379    1.000
    H12      H        0.11030    0.80440    0.30820    1.000
    C31      C        0.20800    0.49370    0.39727    1.000
    C32      C        0.18870    0.70840    0.22065    1.000
    O10      O        0.88610    0.67284    0.44485    1.000
    O11      O        0.86543    0.82183    0.44342    1.000
    O12      O        0.81769    0.74174    0.56981    1.000
    O13      O        0.89250    0.70950    0.65381    1.000
    O14      O        0.06704    0.79337    0.41714    1.000
    O15      O        0.24778    0.44266    0.36082    1.000
    O16      O        0.19250    0.47630    0.45103    1.000
    O17      O        0.21250    0.64840    0.18594    1.000
    O18      O        0.18000    0.79021    0.20503    1.000
    Zn3      Zn       0.72607    0.31487    0.12387    1.000
    Na3      Na       0.74717    0.37308    0.98213    1.000
    C33      C        0.51890    0.26550    0.99491    1.000
    C34      C        0.52510    0.26000    0.93103    1.000
    C35      C        0.45050    0.27530    0.89499    1.000
    H13      H        0.45440    0.27090    0.85270    1.000
    C36      C        0.37120    0.29700    0.92060    1.000
    H14      H        0.32220    0.30840    0.89560    1.000
    C37      C        0.36380    0.30200    0.98310    1.000
    H15      H        0.31010    0.31660    0.00070    1.000
    C38      C        0.43740    0.28490    0.01943    1.000
    C39      C        0.59560    0.24980    0.03874    1.000
    C40      C        0.61020    0.23560    0.90002    1.000
    C41      C        0.38930    0.22750    0.11578    1.000
    C42      C        0.36380    0.14550    0.09152    1.000
    H16      H        0.37470    0.13210    0.05080    1.000
    C43      C        0.32150    0.08290    0.12866    1.000
    C44      C        0.30580    0.10400    0.18924    1.000
    H17      H        0.27740    0.06240    0.21400    1.000
    C45      C        0.33170    0.18620    0.21358    1.000
    C46      C        0.37310    0.24860    0.17621    1.000
    H18      H        0.38970    0.30440    0.19180    1.000
    C47      C        0.29200    0.99370    0.10273    1.000
    C48      C        0.31130    0.20840    0.27935    1.000
    O19      O        0.61390    0.17284    0.05515    1.000
    O20      O        0.63457    0.32183    0.05658    1.000
    O21      O        0.68231    0.24174    0.93019    1.000
    O22      O        0.60750    0.20950    0.84619    1.000
    O23      O        0.43296    0.29337    0.08286    1.000
    O24      O        0.25222    0.94266    0.13918    1.000
    O25      O        0.30750    0.97630    0.04897    1.000
    O26      O        0.28750    0.14840    0.31406    1.000
    O27      O        0.32000    0.29021    0.29497    1.000
    Zn4      Zn       0.22607    0.81487    0.12387    1.000
    Na4      Na       0.24717    0.87308    0.98213    1.000
    C49      C        0.01890    0.76550    0.99491    1.000
    C50      C        0.02510    0.76000    0.93103    1.000
    C51      C        0.95050    0.77530    0.89499    1.000
    H19      H        0.95440    0.77090    0.85270    1.000
    C52      C        0.87120    0.79700    0.92060    1.000
    H20      H        0.82220    0.80840    0.89560    1.000
    C53      C        0.86380    0.80200    0.98310    1.000
    H21      H        0.81010    0.81660    0.00070    1.000
    C54      C        0.93740    0.78490    0.01943    1.000
    C55      C        0.09560    0.74980    0.03874    1.000
    C56      C        0.11020    0.73560    0.90002    1.000
    C57      C        0.88930    0.72750    0.11578    1.000
    C58      C        0.86380    0.64550    0.09152    1.000
    H22      H        0.87470    0.63210    0.05080    1.000
    C59      C        0.82150    0.58290    0.12866    1.000
    C60      C        0.80580    0.60400    0.18924    1.000
    H23      H        0.77740    0.56240    0.21400    1.000
    C61      C        0.83170    0.68620    0.21358    1.000
    C62      C        0.87310    0.74860    0.17621    1.000
    H24      H        0.88970    0.80440    0.19180    1.000
    C63      C        0.79200    0.49370    0.10273    1.000
    C64      C        0.81130    0.70840    0.27935    1.000
    O28      O        0.11390    0.67284    0.05515    1.000
    O29      O        0.13457    0.82183    0.05658    1.000
    O30      O        0.18231    0.74174    0.93019    1.000
    O31      O        0.10750    0.70950    0.84619    1.000
    O32      O        0.93296    0.79337    0.08286    1.000
    O33      O        0.75222    0.44266    0.13918    1.000
    O34      O        0.80750    0.47630    0.04897    1.000
    O35      O        0.78750    0.64840    0.31406    1.000
    O36      O        0.82000    0.79021    0.29497    1.000
    Zn5      Zn       0.72607    0.68513    0.62387    1.000
    Na5      Na       0.74717    0.62692    0.48213    1.000
    C65      C        0.51890    0.73450    0.49491    1.000
    C66      C        0.52510    0.74000    0.43103    1.000
    C67      C        0.45050    0.72470    0.39499    1.000
    H25      H        0.45440    0.72910    0.35270    1.000
    C68      C        0.37120    0.70300    0.42060    1.000
    H26      H        0.32220    0.69160    0.39560    1.000
    C69      C        0.36380    0.69800    0.48310    1.000
    H27      H        0.31010    0.68340    0.50070    1.000
    C70      C        0.43740    0.71510    0.51943    1.000
    C71      C        0.59560    0.75020    0.53874    1.000
    C72      C        0.61020    0.76440    0.40002    1.000
    C73      C        0.38930    0.77250    0.61578    1.000
    C74      C        0.36380    0.85450    0.59152    1.000
    H28      H        0.37470    0.86790    0.55080    1.000
    C75      C        0.32150    0.91710    0.62866    1.000
    C76      C        0.30580    0.89600    0.68924    1.000
    H29      H        0.27740    0.93760    0.71400    1.000
    C77      C        0.33170    0.81380    0.71358    1.000
    C78      C        0.37310    0.75140    0.67621    1.000
    H30      H        0.38970    0.69560    0.69180    1.000
    C79      C        0.29200    0.00630    0.60273    1.000
    C80      C        0.31130    0.79160    0.77935    1.000
    O37      O        0.61390    0.82716    0.55515    1.000
    O38      O        0.63457    0.67817    0.55658    1.000
    O39      O        0.68231    0.75826    0.43019    1.000
    O40      O        0.60750    0.79050    0.34619    1.000
    O41      O        0.43296    0.70663    0.58286    1.000
    O42      O        0.25222    0.05734    0.63918    1.000
    O43      O        0.30750    0.02370    0.54897    1.000
    O44      O        0.28750    0.85160    0.81406    1.000
    O45      O        0.32000    0.70979    0.79497    1.000
    Zn6      Zn       0.22607    0.18513    0.62387    1.000
    Na6      Na       0.24717    0.12692    0.48213    1.000
    C81      C        0.01890    0.23450    0.49491    1.000
    C82      C        0.02510    0.24000    0.43103    1.000
    C83      C        0.95050    0.22470    0.39499    1.000
    H31      H        0.95440    0.22910    0.35270    1.000
    C84      C        0.87120    0.20300    0.42060    1.000
    H32      H        0.82220    0.19160    0.39560    1.000
    C85      C        0.86380    0.19800    0.48310    1.000
    H33      H        0.81010    0.18340    0.50070    1.000
    C86      C        0.93740    0.21510    0.51943    1.000
    C87      C        0.09560    0.25020    0.53874    1.000
    C88      C        0.11020    0.26440    0.40002    1.000
    C89      C        0.88930    0.27250    0.61578    1.000
    C90      C        0.86380    0.35450    0.59152    1.000
    H34      H        0.87470    0.36790    0.55080    1.000
    C91      C        0.82150    0.41710    0.62866    1.000
    C92      C        0.80580    0.39600    0.68924    1.000
    H35      H        0.77740    0.43760    0.71400    1.000
    C93      C        0.83170    0.31380    0.71358    1.000
    C94      C        0.87310    0.25140    0.67621    1.000
    H36      H        0.88970    0.19560    0.69180    1.000
    C95      C        0.79200    0.50630    0.60273    1.000
    C96      C        0.81130    0.29160    0.77935    1.000
    O46      O        0.11390    0.32716    0.55515    1.000
    O47      O        0.13457    0.17817    0.55658    1.000
    O48      O        0.18231    0.25826    0.43019    1.000
    O49      O        0.10750    0.29050    0.34619    1.000
    O50      O        0.93296    0.20663    0.58286    1.000
    O51      O        0.75222    0.55734    0.63918    1.000
    O52      O        0.80750    0.52370    0.54897    1.000
    O53      O        0.78750    0.35160    0.81406    1.000
    O54      O        0.82000    0.20979    0.79497    1.000
    Zn7      Zn       0.27393    0.68513    0.87613    1.000
    Na7      Na       0.25283    0.62692    0.01787    1.000
    C97      C        0.48110    0.73450    0.00509    1.000
    C98      C        0.47490    0.74000    0.06897    1.000
    C99      C        0.54950    0.72470    0.10501    1.000
    H37      H        0.54560    0.72910    0.14730    1.000
    C100     C        0.62880    0.70300    0.07940    1.000
    H38      H        0.67780    0.69160    0.10440    1.000
    C101     C        0.63620    0.69800    0.01690    1.000
    H39      H        0.68990    0.68340    0.99930    1.000
    C102     C        0.56260    0.71510    0.98057    1.000
    C103     C        0.40440    0.75020    0.96126    1.000
    C104     C        0.38980    0.76440    0.09998    1.000
    C105     C        0.61070    0.77250    0.88422    1.000
    C106     C        0.63620    0.85450    0.90848    1.000
    H40      H        0.62530    0.86790    0.94920    1.000
    C107     C        0.67850    0.91710    0.87134    1.000
    C108     C        0.69420    0.89600    0.81076    1.000
    H41      H        0.72260    0.93760    0.78600    1.000
    C109     C        0.66830    0.81380    0.78642    1.000
    C110     C        0.62690    0.75140    0.82379    1.000
    H42      H        0.61030    0.69560    0.80820    1.000
    C111     C        0.70800    0.00630    0.89727    1.000
    C112     C        0.68870    0.79160    0.72065    1.000
    O55      O        0.38610    0.82716    0.94485    1.000
    O56      O        0.36543    0.67817    0.94342    1.000
    O57      O        0.31769    0.75826    0.06981    1.000
    O58      O        0.39250    0.79050    0.15381    1.000
    O59      O        0.56704    0.70663    0.91714    1.000
    O60      O        0.74778    0.05734    0.86082    1.000
    O61      O        0.69250    0.02370    0.95103    1.000
    O62      O        0.71250    0.85160    0.68594    1.000
    O63      O        0.68000    0.70979    0.70503    1.000
    Zn8      Zn       0.77393    0.18513    0.87613    1.000
    Na8      Na       0.75283    0.12692    0.01787    1.000
    C113     C        0.98110    0.23450    0.00509    1.000
    C114     C        0.97490    0.24000    0.06897    1.000
    C115     C        0.04950    0.22470    0.10501    1.000
    H43      H        0.04560    0.22910    0.14730    1.000
    C116     C        0.12880    0.20300    0.07940    1.000
    H44      H        0.17780    0.19160    0.10440    1.000
    C117     C        0.13620    0.19800    0.01690    1.000
    H45      H        0.18990    0.18340    0.99930    1.000
    C118     C        0.06260    0.21510    0.98057    1.000
    C119     C        0.90440    0.25020    0.96126    1.000
    C120     C        0.88980    0.26440    0.09998    1.000
    C121     C        0.11070    0.27250    0.88422    1.000
    C122     C        0.13620    0.35450    0.90848    1.000
    H46      H        0.12530    0.36790    0.94920    1.000
    C123     C        0.17850    0.41710    0.87134    1.000
    C124     C        0.19420    0.39600    0.81076    1.000
    H47      H        0.22260    0.43760    0.78600    1.000
    C125     C        0.16830    0.31380    0.78642    1.000
    C126     C        0.12690    0.25140    0.82379    1.000
    H48      H        0.11030    0.19560    0.80820    1.000
    C127     C        0.20800    0.50630    0.89727    1.000
    C128     C        0.18870    0.29160    0.72065    1.000
    O64      O        0.88610    0.32716    0.94485    1.000
    O65      O        0.86543    0.17817    0.94342    1.000
    O66      O        0.81769    0.25826    0.06981    1.000
    O67      O        0.89250    0.29050    0.15381    1.000
    O68      O        0.06704    0.20663    0.91714    1.000
    O69      O        0.24778    0.55734    0.86082    1.000
    O70      O        0.19250    0.52370    0.95103    1.000
    O71      O        0.21250    0.35160    0.68594    1.000
    O72      O        0.18000    0.20979    0.70503    1.000
