# CIF file generated by openbabel 3.1.0, see https://openbabel.org
data_I
_chemical_name_common 'image0'
_cell_length_a 9.096
_cell_length_b 11.996
_cell_length_c 15.144
_cell_angle_alpha 90
_cell_angle_beta 99.4
_cell_angle_gamma 90
_space_group_name_H-M_alt 'P 1'
_space_group_name_Hall 'P 1'
loop_
    _symmetry_equiv_pos_as_xyz
    x,y,z
loop_
    _atom_site_label
    _atom_site_type_symbol
    _atom_site_fract_x
    _atom_site_fract_y
    _atom_site_fract_z
    _atom_site_occupancy
    In1      In       0.05110    0.91740    0.00290    1.000
    K1       K        0.44410    0.03180    0.36430    1.000
    O1       O        0.11370    0.02690    0.11260    1.000
    O2       O        0.28030    0.06300    0.23200    1.000
    O3       O        0.26120    0.89460    0.94790    1.000
    O4       O        0.44040    0.77480    0.92740    1.000
    O5       O        0.81760    0.97960    0.97170    1.000
    O6       O        0.59410    0.99730    0.01230    1.000
    O7       O        0.97850    0.77960    0.91910    1.000
    O8       O        0.81910    0.64070    0.88970    1.000
    N1       N        0.22110    0.80810    0.10440    1.000
    N2       N        0.90140    0.81610    0.09010    1.000
    C1       C        0.22850    0.00230    0.17100    1.000
    C2       C        0.31110    0.89410    0.16040    1.000
    C3       C        0.34140    0.80770    0.96990    1.000
    C4       C        0.31560    0.74400    0.05150    1.000
    C5       C        0.14220    0.73400    0.15990    1.000
    C6       C        0.99640    0.78270    0.17610    1.000
    C7       C        0.78010    0.89110    0.10470    1.000
    C8       C        0.72220    0.96060    0.02340    1.000
    C9       C        0.84160    0.71880    0.03480    1.000
    C10      C        0.88100    0.71390    0.94080    1.000
    In2      In       0.55110    0.41740    0.00290    1.000
    K2       K        0.94410    0.53180    0.36430    1.000
    O9       O        0.61370    0.52690    0.11260    1.000
    O10      O        0.78030    0.56300    0.23200    1.000
    O11      O        0.76120    0.39460    0.94790    1.000
    O12      O        0.94040    0.27480    0.92740    1.000
    O13      O        0.31760    0.47960    0.97170    1.000
    O14      O        0.09410    0.49730    0.01230    1.000
    O15      O        0.47850    0.27960    0.91910    1.000
    O16      O        0.31910    0.14070    0.88970    1.000
    N3       N        0.72110    0.30810    0.10440    1.000
    N4       N        0.40140    0.31610    0.09010    1.000
    C11      C        0.72850    0.50230    0.17100    1.000
    C12      C        0.81110    0.39410    0.16040    1.000
    C13      C        0.84140    0.30770    0.96990    1.000
    C14      C        0.81560    0.24400    0.05150    1.000
    C15      C        0.64220    0.23400    0.15990    1.000
    C16      C        0.49640    0.28270    0.17610    1.000
    C17      C        0.28010    0.39110    0.10470    1.000
    C18      C        0.22220    0.46060    0.02340    1.000
    C19      C        0.34160    0.21880    0.03480    1.000
    C20      C        0.38100    0.21390    0.94080    1.000
    In3      In       0.05110    0.08260    0.50290    1.000
    K3       K        0.44410    0.96820    0.86430    1.000
    O17      O        0.11370    0.97310    0.61260    1.000
    O18      O        0.28030    0.93700    0.73200    1.000
    O19      O        0.26120    0.10540    0.44790    1.000
    O20      O        0.44040    0.22520    0.42740    1.000
    O21      O        0.81760    0.02040    0.47170    1.000
    O22      O        0.59410    0.00270    0.51230    1.000
    O23      O        0.97850    0.22040    0.41910    1.000
    O24      O        0.81910    0.35930    0.38970    1.000
    N5       N        0.22110    0.19190    0.60440    1.000
    N6       N        0.90140    0.18390    0.59010    1.000
    C21      C        0.22850    0.99770    0.67100    1.000
    C22      C        0.31110    0.10590    0.66040    1.000
    C23      C        0.34140    0.19230    0.46990    1.000
    C24      C        0.31560    0.25600    0.55150    1.000
    C25      C        0.14220    0.26600    0.65990    1.000
    C26      C        0.99640    0.21730    0.67610    1.000
    C27      C        0.78010    0.10890    0.60470    1.000
    C28      C        0.72220    0.03940    0.52340    1.000
    C29      C        0.84160    0.28120    0.53480    1.000
    C30      C        0.88100    0.28610    0.44080    1.000
    In4      In       0.55110    0.58260    0.50290    1.000
    K4       K        0.94410    0.46820    0.86430    1.000
    O25      O        0.61370    0.47310    0.61260    1.000
    O26      O        0.78030    0.43700    0.73200    1.000
    O27      O        0.76120    0.60540    0.44790    1.000
    O28      O        0.94040    0.72520    0.42740    1.000
    O29      O        0.31760    0.52040    0.47170    1.000
    O30      O        0.09410    0.50270    0.51230    1.000
    O31      O        0.47850    0.72040    0.41910    1.000
    O32      O        0.31910    0.85930    0.38970    1.000
    N7       N        0.72110    0.69190    0.60440    1.000
    N8       N        0.40140    0.68390    0.59010    1.000
    C31      C        0.72850    0.49770    0.67100    1.000
    C32      C        0.81110    0.60590    0.66040    1.000
    C33      C        0.84140    0.69230    0.46990    1.000
    C34      C        0.81560    0.75600    0.55150    1.000
    C35      C        0.64220    0.76600    0.65990    1.000
    C36      C        0.49640    0.71730    0.67610    1.000
    C37      C        0.28010    0.60890    0.60470    1.000
    C38      C        0.22220    0.53940    0.52340    1.000
    C39      C        0.34160    0.78120    0.53480    1.000
    C40      C        0.38100    0.78610    0.44080    1.000
