# CIF file generated by openbabel 3.1.0, see https://openbabel.org
data_I
_chemical_name_common 'GUKZAO_clean'
_cell_length_a 10.15
_cell_length_b 11.0784
_cell_length_c 13.878
_cell_angle_alpha 107.373
_cell_angle_beta 92.242
_cell_angle_gamma 115.042
_space_group_name_H-M_alt 'P 1'
_space_group_name_Hall 'P 1'
loop_
    _symmetry_equiv_pos_as_xyz
    x,y,z
loop_
    _atom_site_label
    _atom_site_type_symbol
    _atom_site_fract_x
    _atom_site_fract_y
    _atom_site_fract_z
    _atom_site_occupancy
    Eu1      Eu       0.44153    0.45346    0.34788    1.000
    Eu2      Eu       0.55847    0.54654    0.65212    1.000
    H1       H        0.77560    0.89330    0.38850    1.000
    H2       H        0.16130    0.48690    0.38920    1.000
    H3       H        0.96430    0.17830    0.11540    1.000
    H4       H        0.94920    0.80650    0.69070    1.000
    H5       H        0.99380    0.58150    0.78080    1.000
    H6       H        0.39830    0.08690    0.08650    1.000
    H7       H        0.22440    0.10670    0.61150    1.000
    H8       H        0.83870    0.51310    0.61080    1.000
    H9       H        0.03570    0.82170    0.88460    1.000
    H10      H        0.05080    0.19350    0.30930    1.000
    H11      H        0.00620    0.41850    0.21920    1.000
    H12      H        0.60170    0.91310    0.91350    1.000
    C1       C        0.74000    0.75760    0.51330    1.000
    C2       C        0.87810    0.88280    0.51070    1.000
    C3       C        0.86760    0.93710    0.43470    1.000
    C4       C        0.01490    0.94700    0.57770    1.000
    C5       C        0.30160    0.56480    0.57440    1.000
    C6       C        0.14620    0.53410    0.53860    1.000
    C7       C        0.09510    0.49290    0.43480    1.000
    C8       C        0.04830    0.54040    0.60690    1.000
    C9       C        0.23180    0.22690    0.17210    1.000
    C10      C        0.11610    0.10700    0.08190    1.000
    C11      C        0.13890    0.99940    0.01170    1.000
    C12      C        0.97890    0.10500    0.06810    1.000
    C13      C        0.26000    0.24240    0.48670    1.000
    C14      C        0.12190    0.11720    0.48930    1.000
    C15      C        0.13240    0.06290    0.56530    1.000
    C16      C        0.98510    0.05300    0.42230    1.000
    C17      C        0.69840    0.43520    0.42560    1.000
    C18      C        0.85380    0.46590    0.46140    1.000
    C19      C        0.90490    0.50710    0.56520    1.000
    C20      C        0.95170    0.45960    0.39310    1.000
    C21      C        0.76820    0.77310    0.82790    1.000
    C22      C        0.88390    0.89300    0.91810    1.000
    C23      C        0.86110    0.00060    0.98830    1.000
    C24      C        0.02110    0.89500    0.93190    1.000
    S1       S        0.06066    0.88890    0.67397    1.000
    S2       S        0.09924    0.58971    0.74175    1.000
    S3       S        0.30830    0.98975    0.01481    1.000
    S4       S        0.93934    0.11110    0.32603    1.000
    S5       S        0.90076    0.41029    0.25825    1.000
    S6       S        0.69170    0.01025    0.98519    1.000
    O1       O        0.65150    0.68120    0.42870    1.000
    O2       O        0.72120    0.73780    0.59770    1.000
    O3       O        0.34620    0.59600    0.66850    1.000
    O4       O        0.38510    0.55380    0.51020    1.000
    O5       O        0.20550    0.32700    0.22200    1.000
    O6       O        0.35160    0.22430    0.19700    1.000
    O7       O        0.34850    0.31880    0.57130    1.000
    O8       O        0.27880    0.26220    0.40230    1.000
    O9       O        0.65380    0.40400    0.33150    1.000
    O10      O        0.61490    0.44620    0.48980    1.000
    O11      O        0.79450    0.67300    0.77800    1.000
    O12      O        0.64840    0.77570    0.80300    1.000
