# CIF file generated by openbabel 3.1.0, see https://openbabel.org
data_I
_chemical_name_common 'JOSNAG_clean'
_cell_length_a 9.239
_cell_length_b 9.79
_cell_length_c 10.709
_cell_angle_alpha 68.04
_cell_angle_beta 84.49
_cell_angle_gamma 62.01
_space_group_name_H-M_alt 'P 1'
_space_group_name_Hall 'P 1'
loop_
    _symmetry_equiv_pos_as_xyz
    x,y,z
loop_
    _atom_site_label
    _atom_site_type_symbol
    _atom_site_fract_x
    _atom_site_fract_y
    _atom_site_fract_z
    _atom_site_occupancy
    La1      La       0.77530    0.45620    0.01590    1.000
    La2      La       0.22470    0.54380    0.98410    1.000
    H1       H        0.11300    0.26800    0.43600    1.000
    H2       H        0.17000    0.40200    0.34800    1.000
    H3       H        0.86700    0.48300    0.46800    1.000
    H4       H        0.91500    0.61900    0.37100    1.000
    H5       H        0.36100    0.61900    0.37400    1.000
    H6       H        0.53800    0.47300    0.37400    1.000
    H7       H        0.63400    0.66100    0.24800    1.000
    H8       H        0.57700    0.68700    0.38600    1.000
    H9       H        0.38100    0.89800    0.12800    1.000
    H10      H        0.32500    0.92400    0.26300    1.000
    H11      H        0.56700    0.95800    0.27600    1.000
    H12      H        0.59800    0.95700    0.12500    1.000
    H13      H        0.88700    0.73200    0.56400    1.000
    H14      H        0.83000    0.59800    0.65200    1.000
    H15      H        0.13300    0.51700    0.53200    1.000
    H16      H        0.08500    0.38100    0.62900    1.000
    H17      H        0.63900    0.38100    0.62600    1.000
    H18      H        0.46200    0.52700    0.62600    1.000
    H19      H        0.36600    0.33900    0.75200    1.000
    H20      H        0.42300    0.31300    0.61400    1.000
    H21      H        0.61900    0.10200    0.87200    1.000
    H22      H        0.67500    0.07600    0.73700    1.000
    H23      H        0.43300    0.04200    0.72400    1.000
    H24      H        0.40200    0.04300    0.87500    1.000
    C1       C        0.98670    0.40530    0.25200    1.000
    C2       C        0.07460    0.38370    0.37480    1.000
    C3       C        0.95760    0.50520    0.43980    1.000
    C4       C        0.40020    0.58800    0.19480    1.000
    C5       C        0.45640    0.58860    0.32190    1.000
    C6       C        0.53700    0.70060    0.29500    1.000
    C7       C        0.42280    0.88390    0.21520    1.000
    C8       C        0.51460    0.98520    0.19050    1.000
    C9       C        0.40740    0.17120    0.12500    1.000
    C10      C        0.01330    0.59470    0.74800    1.000
    C11      C        0.92540    0.61630    0.62520    1.000
    C12      C        0.04240    0.49480    0.56020    1.000
    C13      C        0.59980    0.41200    0.80520    1.000
    C14      C        0.54360    0.41140    0.67810    1.000
    C15      C        0.46300    0.29940    0.70500    1.000
    C16      C        0.57720    0.11610    0.78480    1.000
    C17      C        0.48540    0.01480    0.80950    1.000
    C18      C        0.59260    0.82880    0.87500    1.000
    O1       O        0.02200    0.46820    0.13460    1.000
    O2       O        0.87250    0.36580    0.26630    1.000
    O3       O        0.50100    0.55100    0.11020    1.000
    O4       O        0.42200    0.26560    0.17300    1.000
    O5       O        0.25240    0.62200    0.17680    1.000
    O6       O        0.30850    0.23290    0.02270    1.000
    O7       O        0.97800    0.53180    0.86540    1.000
    O8       O        0.12750    0.63420    0.73370    1.000
    O9       O        0.49900    0.44900    0.88980    1.000
    O10      O        0.57800    0.73440    0.82700    1.000
    O11      O        0.74760    0.37800    0.82320    1.000
    O12      O        0.69150    0.76710    0.97730    1.000
