# CIF file generated by openbabel 3.1.0, see https://openbabel.org
data_I
_chemical_name_common 'image0'
_cell_length_a 9.5837
_cell_length_b 12.643
_cell_length_c 13.9294
_cell_angle_alpha 90
_cell_angle_beta 110.093
_cell_angle_gamma 90
_space_group_name_H-M_alt 'P 1'
_space_group_name_Hall 'P 1'
loop_
    _symmetry_equiv_pos_as_xyz
    x,y,z
loop_
    _atom_site_label
    _atom_site_type_symbol
    _atom_site_fract_x
    _atom_site_fract_y
    _atom_site_fract_z
    _atom_site_occupancy
    C1       C        0.69610    0.89905    0.87428    1.000
    C2       C        0.83700    0.94520    0.86749    1.000
    C3       C        0.84960    0.05530    0.87222    1.000
    H1       H        0.76870    0.09720    0.87480    1.000
    C4       C        0.98000    0.10360    0.87320    1.000
    C5       C        0.10020    0.04250    0.87096    1.000
    H2       H        0.18940    0.07550    0.87140    1.000
    C6       C        0.08820    0.93279    0.86816    1.000
    C7       C        0.95590    0.88379    0.86552    1.000
    H3       H        0.94770    0.80890    0.86240    1.000
    C8       C        0.21670    0.86944    0.86290    1.000
    C9       C        0.51510    0.77298    0.07500    1.000
    C10      C        0.51070    0.70944    0.16579    1.000
    C11      C        0.51290    0.59974    0.16643    1.000
    H4       H        0.52320    0.56220    0.11020    1.000
    Co1      Co       0.43542    0.77487    0.84285    1.000
    O1       O        0.63745    0.81584    0.82347    1.000
    O2       O        0.64470    0.94597    0.93251    1.000
    O3       O        0.20358    0.77299    0.84136    1.000
    O4       O        0.34002    0.91555    0.87522    1.000
    O5       O        0.47130    0.12925    0.91151    1.000
    O6       O        0.50150    0.72376    0.99333    1.000
    O7       O        0.44860    0.62014    0.81104    1.000
    C12      C        0.00160    0.21930    0.88820    1.000
    O8       O        0.91050    0.27370    0.91230    1.000
    O9       O        0.12820    0.25160    0.89020    1.000
    H5       H        0.13190    0.30830    0.85260    1.000
    C13      C        0.98800    0.22260    0.87700    1.000
    O10      O        0.87250    0.27360    0.87300    1.000
    O11      O        0.10490    0.26690    0.87140    1.000
    H6       H        0.15280    0.31390    0.91840    1.000
    C14      C        0.30390    0.89905    0.62572    1.000
    C15      C        0.16300    0.94520    0.63251    1.000
    C16      C        0.15040    0.05530    0.62778    1.000
    H7       H        0.23130    0.09720    0.62520    1.000
    C17      C        0.02000    0.10360    0.62680    1.000
    C18      C        0.89980    0.04250    0.62904    1.000
    H8       H        0.81060    0.07550    0.62860    1.000
    C19      C        0.91180    0.93279    0.63184    1.000
    C20      C        0.04410    0.88379    0.63448    1.000
    H9       H        0.05230    0.80890    0.63760    1.000
    C21      C        0.78330    0.86944    0.63710    1.000
    C22      C        0.48490    0.77298    0.42500    1.000
    C23      C        0.48930    0.70944    0.33421    1.000
    C24      C        0.48710    0.59974    0.33357    1.000
    H10      H        0.47680    0.56220    0.38980    1.000
    Co2      Co       0.56458    0.77487    0.65715    1.000
    O12      O        0.36255    0.81584    0.67653    1.000
    O13      O        0.35530    0.94597    0.56749    1.000
    O14      O        0.79642    0.77299    0.65864    1.000
    O15      O        0.65998    0.91555    0.62478    1.000
    O16      O        0.52870    0.12925    0.58849    1.000
    O17      O        0.49850    0.72376    0.50667    1.000
    O18      O        0.55140    0.62014    0.68896    1.000
    C25      C        0.99840    0.21930    0.61180    1.000
    O19      O        0.08950    0.27370    0.58770    1.000
    O20      O        0.87180    0.25160    0.60980    1.000
    H11      H        0.86810    0.30830    0.64740    1.000
    C26      C        0.01200    0.22260    0.62300    1.000
    O21      O        0.12750    0.27360    0.62700    1.000
    O22      O        0.89510    0.26690    0.62860    1.000
    H12      H        0.84720    0.31390    0.58160    1.000
    C27      C        0.30390    0.10095    0.12572    1.000
    C28      C        0.16300    0.05480    0.13251    1.000
    C29      C        0.15040    0.94470    0.12778    1.000
    H13      H        0.23130    0.90280    0.12520    1.000
    C30      C        0.02000    0.89640    0.12680    1.000
    C31      C        0.89980    0.95750    0.12904    1.000
    H14      H        0.81060    0.92450    0.12860    1.000
    C32      C        0.91180    0.06721    0.13184    1.000
    C33      C        0.04410    0.11621    0.13448    1.000
    H15      H        0.05230    0.19110    0.13760    1.000
    C34      C        0.78330    0.13056    0.13710    1.000
    C35      C        0.48490    0.22702    0.92500    1.000
    C36      C        0.48930    0.29056    0.83421    1.000
    C37      C        0.48710    0.40026    0.83357    1.000
    H16      H        0.47680    0.43780    0.88980    1.000
    Co3      Co       0.56458    0.22513    0.15715    1.000
    O23      O        0.36255    0.18416    0.17653    1.000
    O24      O        0.35530    0.05403    0.06749    1.000
    O25      O        0.79642    0.22701    0.15864    1.000
    O26      O        0.65998    0.08445    0.12478    1.000
    O27      O        0.52870    0.87075    0.08849    1.000
    O28      O        0.49850    0.27624    0.00667    1.000
    O29      O        0.55140    0.37986    0.18896    1.000
    C38      C        0.99840    0.78070    0.11180    1.000
    O30      O        0.08950    0.72630    0.08770    1.000
    O31      O        0.87180    0.74840    0.10980    1.000
    H17      H        0.86810    0.69170    0.14740    1.000
    C39      C        0.01200    0.77740    0.12300    1.000
    O32      O        0.12750    0.72640    0.12700    1.000
    O33      O        0.89510    0.73310    0.12860    1.000
    H18      H        0.84720    0.68610    0.08160    1.000
    C40      C        0.69610    0.10095    0.37428    1.000
    C41      C        0.83700    0.05480    0.36749    1.000
    C42      C        0.84960    0.94470    0.37222    1.000
    H19      H        0.76870    0.90280    0.37480    1.000
    C43      C        0.98000    0.89640    0.37320    1.000
    C44      C        0.10020    0.95750    0.37096    1.000
    H20      H        0.18940    0.92450    0.37140    1.000
    C45      C        0.08820    0.06721    0.36816    1.000
    C46      C        0.95590    0.11621    0.36552    1.000
    H21      H        0.94770    0.19110    0.36240    1.000
    C47      C        0.21670    0.13056    0.36290    1.000
    C48      C        0.51510    0.22702    0.57500    1.000
    C49      C        0.51070    0.29056    0.66579    1.000
    C50      C        0.51290    0.40026    0.66643    1.000
    H22      H        0.52320    0.43780    0.61020    1.000
    Co4      Co       0.43542    0.22513    0.34285    1.000
    O34      O        0.63745    0.18416    0.32347    1.000
    O35      O        0.64470    0.05403    0.43251    1.000
    O36      O        0.20358    0.22701    0.34136    1.000
    O37      O        0.34002    0.08445    0.37522    1.000
    O38      O        0.47130    0.87075    0.41151    1.000
    O39      O        0.50150    0.27624    0.49333    1.000
    O40      O        0.44860    0.37986    0.31104    1.000
    C51      C        0.00160    0.78070    0.38820    1.000
    O41      O        0.91050    0.72630    0.41230    1.000
    O42      O        0.12820    0.74840    0.39020    1.000
    H23      H        0.13190    0.69170    0.35260    1.000
    C52      C        0.98800    0.77740    0.37700    1.000
    O43      O        0.87250    0.72640    0.37300    1.000
    O44      O        0.10490    0.73310    0.37140    1.000
    H24      H        0.15280    0.68610    0.41840    1.000
    C53      C        0.50000    0.76380    0.25000    1.000
    H25      H        0.50000    0.83890    0.25000    1.000
    C54      C        0.50000    0.42550    0.25000    1.000
    C55      C        0.50000    0.54430    0.25000    1.000
    C56      C        0.50000    0.23620    0.75000    1.000
    H26      H        0.50000    0.16110    0.75000    1.000
    C57      C        0.50000    0.57450    0.75000    1.000
    C58      C        0.50000    0.45570    0.75000    1.000
    Co5      Co       0.50000    0.00000    0.00000    1.000
    Co6      Co       0.50000    0.00000    0.50000    1.000
