# CIF file generated by openbabel 3.1.0, see https://openbabel.org
data_I
_chemical_name_common 'image0'
_cell_length_a 9.809
_cell_length_b 11.058
_cell_length_c 11.698
_cell_angle_alpha 81.23
_cell_angle_beta 81.57
_cell_angle_gamma 81.25
_space_group_name_H-M_alt 'P 1'
_space_group_name_Hall 'P 1'
loop_
    _symmetry_equiv_pos_as_xyz
    x,y,z
loop_
    _atom_site_label
    _atom_site_type_symbol
    _atom_site_fract_x
    _atom_site_fract_y
    _atom_site_fract_z
    _atom_site_occupancy
    Ba1      Ba       0.94137    0.32467    0.99549    1.000
    C1       C        0.97880    0.34610    0.46000    1.000
    C2       C        0.98590    0.24520    0.54930    1.000
    C3       C        0.98060    0.27200    0.66450    1.000
    C4       C        0.99590    0.09700    0.40870    1.000
    H1       H        0.99310    0.16200    0.34810    1.000
    C5       C        0.99260    0.12200    0.52560    1.000
    C6       C        0.99700    0.02040    0.61510    1.000
    H2       H        0.99490    0.03420    0.69180    1.000
    N1       N        0.97480    0.29340    0.75750    1.000
    N2       N        0.97080    0.42590    0.38520    1.000
    O1       O        0.93551    0.55422    0.85595    1.000
    H3       H        0.98370    0.55140    0.78960    1.000
    H4       H        0.85530    0.59120    0.84400    1.000
    C7       C        0.57450    0.39390    0.85480    1.000
    C8       C        0.45780    0.39750    0.79420    1.000
    C9       C        0.32470    0.41890    0.85850    1.000
    C10      C        0.47230    0.37330    0.67680    1.000
    C11      C        0.35530    0.36860    0.62060    1.000
    H5       H        0.26680    0.38220    0.66130    1.000
    C12      C        0.36890    0.34470    0.50790    1.000
    H6       H        0.28970    0.34290    0.47340    1.000
    C13      C        0.50210    0.32270    0.44280    1.000
    C14      C        0.61810    0.32690    0.49980    1.000
    H7       H        0.70680    0.31320    0.45930    1.000
    C15      C        0.60460    0.35040    0.61180    1.000
    H8       H        0.68400    0.35140    0.64630    1.000
    C16      C        0.51850    0.29850    0.32590    1.000
    C17      C        0.40410    0.29020    0.26860    1.000
    C18      C        0.65050    0.28050    0.25970    1.000
    N3       N        0.66800    0.39030    0.90240    1.000
    N4       N        0.21600    0.43530    0.90880    1.000
    N5       N        0.31030    0.28520    0.22250    1.000
    N6       N        0.75700    0.26810    0.20570    1.000
    Ba2      Ba       0.05863    0.67533    0.00451    1.000
    C19      C        0.02120    0.65390    0.54000    1.000
    C20      C        0.01410    0.75480    0.45070    1.000
    C21      C        0.01940    0.72800    0.33550    1.000
    C22      C        0.00410    0.90300    0.59130    1.000
    H9       H        0.00690    0.83800    0.65190    1.000
    C23      C        0.00740    0.87800    0.47440    1.000
    C24      C        0.00300    0.97960    0.38490    1.000
    H10      H        0.00510    0.96580    0.30820    1.000
    N7       N        0.02520    0.70660    0.24250    1.000
    N8       N        0.02920    0.57410    0.61480    1.000
    O2       O        0.06449    0.44578    0.14405    1.000
    H11      H        0.01630    0.44860    0.21040    1.000
    H12      H        0.14470    0.40880    0.15600    1.000
    C25      C        0.42550    0.60610    0.14520    1.000
    C26      C        0.54220    0.60250    0.20580    1.000
    C27      C        0.67530    0.58110    0.14150    1.000
    C28      C        0.52770    0.62670    0.32320    1.000
    C29      C        0.64470    0.63140    0.37940    1.000
    H13      H        0.73320    0.61780    0.33870    1.000
    C30      C        0.63110    0.65530    0.49210    1.000
    H14      H        0.71030    0.65710    0.52660    1.000
    C31      C        0.49790    0.67730    0.55720    1.000
    C32      C        0.38190    0.67310    0.50020    1.000
    H15      H        0.29320    0.68680    0.54070    1.000
    C33      C        0.39540    0.64960    0.38820    1.000
    H16      H        0.31600    0.64860    0.35370    1.000
    C34      C        0.48150    0.70150    0.67410    1.000
    C35      C        0.59590    0.70980    0.73140    1.000
    C36      C        0.34950    0.71950    0.74030    1.000
    N9       N        0.33200    0.60970    0.09760    1.000
    N10      N        0.78400    0.56470    0.09120    1.000
    N11      N        0.68970    0.71480    0.77750    1.000
    N12      N        0.24300    0.73190    0.79430    1.000
