# CIF file generated by openbabel 3.1.0, see https://openbabel.org
data_I
_chemical_name_common 'image0'
_cell_length_a 11.3806
_cell_length_b 9.8451
_cell_length_c 18.3883
_cell_angle_alpha 90
_cell_angle_beta 126.909
_cell_angle_gamma 90
_space_group_name_H-M_alt 'P 1'
_space_group_name_Hall 'P 1'
loop_
    _symmetry_equiv_pos_as_xyz
    x,y,z
loop_
    _atom_site_label
    _atom_site_type_symbol
    _atom_site_fract_x
    _atom_site_fract_y
    _atom_site_fract_z
    _atom_site_occupancy
    Fe1      Fe       0.37754    0.08403    0.13308    1.000
    Fe2      Fe       0.42651    0.10380    0.68738    1.000
    O1       O        0.43540    0.20580    0.24569    1.000
    O2       O        0.55050    0.06830    0.36690    1.000
    O3       O        0.59100    0.00150    0.21935    1.000
    O4       O        0.67830    0.00160    0.13836    1.000
    O5       O        0.45440    0.26180    0.10717    1.000
    O6       O        0.48250    0.21030    0.00019    1.000
    O7       O        0.34550    0.92010    0.19594    1.000
    O8       O        0.10380    0.89680    0.12060    1.000
    O9       O        0.33670    0.97500    0.02309    1.000
    O10      O        0.11490    0.89230    0.96720    1.000
    O11      O        0.15940    0.15680    0.05986    1.000
    O12      O        0.20100    0.38000    0.09198    1.000
    C1       C        0.49560    0.17780    0.32910    1.000
    H1       H        0.49810    0.24820    0.36530    1.000
    C2       C        0.69340    0.99010    0.21070    1.000
    H2       H        0.78930    0.97130    0.26400    1.000
    C3       C        0.47400    0.29170    0.04790    1.000
    H3       H        0.48300    0.38530    0.03960    1.000
    C4       C        0.23230    0.87260    0.18490    1.000
    H4       H        0.24800    0.81270    0.23050    1.000
    C5       C        0.22420    0.89980    0.96930    1.000
    H5       H        0.22590    0.84510    0.92740    1.000
    C6       C        0.11870    0.28220    0.05100    1.000
    H6       H        0.01650    0.30070    0.00920    1.000
    Fe3      Fe       0.62246    0.58403    0.36692    1.000
    Fe4      Fe       0.57349    0.60380    0.81262    1.000
    O13      O        0.56460    0.70580    0.25431    1.000
    O14      O        0.44950    0.56830    0.13310    1.000
    O15      O        0.40900    0.50150    0.28065    1.000
    O16      O        0.32170    0.50160    0.36164    1.000
    O17      O        0.54560    0.76180    0.39283    1.000
    O18      O        0.51750    0.71030    0.49981    1.000
    O19      O        0.65450    0.42010    0.30406    1.000
    O20      O        0.89620    0.39680    0.37940    1.000
    O21      O        0.66330    0.47500    0.47691    1.000
    O22      O        0.88510    0.39230    0.53280    1.000
    O23      O        0.84060    0.65680    0.44014    1.000
    O24      O        0.79900    0.88000    0.40802    1.000
    C7       C        0.50440    0.67780    0.17090    1.000
    H7       H        0.50190    0.74820    0.13470    1.000
    C8       C        0.30660    0.49010    0.28930    1.000
    H8       H        0.21070    0.47130    0.23600    1.000
    C9       C        0.52600    0.79170    0.45210    1.000
    H9       H        0.51700    0.88530    0.46040    1.000
    C10      C        0.76770    0.37260    0.31510    1.000
    H10      H        0.75200    0.31270    0.26950    1.000
    C11      C        0.77580    0.39980    0.53070    1.000
    H11      H        0.77410    0.34510    0.57260    1.000
    C12      C        0.88130    0.78220    0.44900    1.000
    H12      H        0.98350    0.80070    0.49080    1.000
    Fe5      Fe       0.62246    0.91597    0.86692    1.000
    Fe6      Fe       0.57349    0.89620    0.31262    1.000
    O25      O        0.56460    0.79420    0.75431    1.000
    O26      O        0.44950    0.93170    0.63310    1.000
    O27      O        0.40900    0.99850    0.78065    1.000
    O28      O        0.32170    0.99840    0.86164    1.000
    O29      O        0.54560    0.73820    0.89283    1.000
    O30      O        0.51750    0.78970    0.99981    1.000
    O31      O        0.65450    0.07990    0.80406    1.000
    O32      O        0.89620    0.10320    0.87940    1.000
    O33      O        0.66330    0.02500    0.97691    1.000
    O34      O        0.88510    0.10770    0.03280    1.000
    O35      O        0.84060    0.84320    0.94014    1.000
    O36      O        0.79900    0.62000    0.90802    1.000
    C13      C        0.50440    0.82220    0.67090    1.000
    H13      H        0.50190    0.75180    0.63470    1.000
    C14      C        0.30660    0.00990    0.78930    1.000
    H14      H        0.21070    0.02870    0.73600    1.000
    C15      C        0.52600    0.70830    0.95210    1.000
    H15      H        0.51700    0.61470    0.96040    1.000
    C16      C        0.76770    0.12740    0.81510    1.000
    H16      H        0.75200    0.18730    0.76950    1.000
    C17      C        0.77580    0.10020    0.03070    1.000
    H17      H        0.77410    0.15490    0.07260    1.000
    C18      C        0.88130    0.71780    0.94900    1.000
    H18      H        0.98350    0.69930    0.99080    1.000
    Fe7      Fe       0.37754    0.41597    0.63308    1.000
    Fe8      Fe       0.42651    0.39620    0.18738    1.000
    O37      O        0.43540    0.29420    0.74569    1.000
    O38      O        0.55050    0.43170    0.86690    1.000
    O39      O        0.59100    0.49850    0.71935    1.000
    O40      O        0.67830    0.49840    0.63836    1.000
    O41      O        0.45440    0.23820    0.60717    1.000
    O42      O        0.48250    0.28970    0.50019    1.000
    O43      O        0.34550    0.57990    0.69594    1.000
    O44      O        0.10380    0.60320    0.62060    1.000
    O45      O        0.33670    0.52500    0.52309    1.000
    O46      O        0.11490    0.60770    0.46720    1.000
    O47      O        0.15940    0.34320    0.55986    1.000
    O48      O        0.20100    0.12000    0.59198    1.000
    C19      C        0.49560    0.32220    0.82910    1.000
    H19      H        0.49810    0.25180    0.86530    1.000
    C20      C        0.69340    0.50990    0.71070    1.000
    H20      H        0.78930    0.52870    0.76400    1.000
    C21      C        0.47400    0.20830    0.54790    1.000
    H21      H        0.48300    0.11470    0.53960    1.000
    C22      C        0.23230    0.62740    0.68490    1.000
    H22      H        0.24800    0.68730    0.73050    1.000
    C23      C        0.22420    0.60020    0.46930    1.000
    H23      H        0.22590    0.65490    0.42740    1.000
    C24      C        0.11870    0.21780    0.55100    1.000
    H24      H        0.01650    0.19930    0.50920    1.000
    Fe9      Fe       0.50000    0.00000    0.00000    1.000
    Fe10     Fe       0.50000    0.50000    0.50000    1.000
    Fe11     Fe       0.00000    0.00000    0.00000    1.000
    Fe12     Fe       0.00000    0.50000    0.50000    1.000
