# CIF file generated by openbabel 3.1.0, see https://openbabel.org
data_I
_chemical_name_common 'image0'
_cell_length_a 29.218
_cell_length_b 11.1912
_cell_length_c 22.9833
_cell_angle_alpha 90
_cell_angle_beta 90
_cell_angle_gamma 90
_space_group_name_H-M_alt 'P 1'
_space_group_name_Hall 'P 1'
loop_
    _symmetry_equiv_pos_as_xyz
    x,y,z
loop_
    _atom_site_label
    _atom_site_type_symbol
    _atom_site_fract_x
    _atom_site_fract_y
    _atom_site_fract_z
    _atom_site_occupancy
    Cd1      Cd       0.11480    0.54311    0.19135    1.000
    Cd2      Cd       0.06184    0.75361    0.09348    1.000
    O1       O        0.10890    0.57890    0.09210    1.000
    O2       O        0.17900    0.54800    0.11990    1.000
    O3       O        0.32450    0.53550    0.76240    1.000
    O4       O        0.39530    0.53620    0.79170    1.000
    O5       O        0.37300    0.65610    0.05880    1.000
    O6       O        0.42520    0.69650    0.99510    1.000
    O7       O        0.96270    0.44680    0.81260    1.000
    O8       O        0.99190    0.37640    0.89610    1.000
    O9       O        0.12260    0.75370    0.70980    1.000
    O10      O        0.05980    0.66400    0.67980    1.000
    C1       C        0.15140    0.56530    0.08120    1.000
    C2       C        0.16640    0.56990    0.01810    1.000
    C3       C        0.21190    0.57240    0.00480    1.000
    H1       H        0.23360    0.56920    0.03430    1.000
    C4       C        0.22590    0.57970    0.94680    1.000
    C5       C        0.19280    0.58240    0.90390    1.000
    H2       H        0.20200    0.58890    0.86530    1.000
    C6       C        0.14660    0.57570    0.91620    1.000
    C7       C        0.13350    0.57020    0.97460    1.000
    H3       H        0.10260    0.56660    0.98440    1.000
    C8       C        0.35330    0.54260    0.80120    1.000
    C9       C        0.38560    0.65930    0.00790    1.000
    C10      C        0.33790    0.56830    0.86200    1.000
    C11      C        0.36860    0.59660    0.90440    1.000
    H4       H        0.39970    0.59810    0.89580    1.000
    C12      C        0.35350    0.62390    0.96170    1.000
    C13      C        0.30840    0.61430    0.97350    1.000
    H5       H        0.29880    0.62720    0.01160    1.000
    C14      C        0.27590    0.58650    0.93220    1.000
    C15      C        0.29160    0.55840    0.87630    1.000
    H6       H        0.27090    0.53280    0.84820    1.000
    C16      C        0.99360    0.43820    0.84840    1.000
    C17      C        0.08910    0.68660    0.71770    1.000
    C18      C        0.03750    0.50590    0.83750    1.000
    C19      C        0.04320    0.56090    0.78580    1.000
    H7       H        0.02050    0.55640    0.75760    1.000
    C20      C        0.08320    0.62430    0.77480    1.000
    C21      C        0.11630    0.63060    0.81770    1.000
    H8       H        0.14280    0.67460    0.81060    1.000
    C22      C        0.11140    0.57400    0.87050    1.000
    C23      C        0.07110    0.51070    0.88000    1.000
    H9       H        0.06660    0.47130    0.91520    1.000
    Cd3      Cd       0.38520    0.95689    0.19135    1.000
    Cd4      Cd       0.43816    0.74639    0.09348    1.000
    O11      O        0.39110    0.92110    0.09210    1.000
    O12      O        0.32100    0.95200    0.11990    1.000
    O13      O        0.17550    0.96450    0.76240    1.000
    O14      O        0.10470    0.96380    0.79170    1.000
    O15      O        0.12700    0.84390    0.05880    1.000
    O16      O        0.07480    0.80350    0.99510    1.000
    O17      O        0.53730    0.05320    0.81260    1.000
    O18      O        0.50810    0.12360    0.89610    1.000
    O19      O        0.37740    0.74630    0.70980    1.000
    O20      O        0.44020    0.83600    0.67980    1.000
    C24      C        0.34860    0.93470    0.08120    1.000
    C25      C        0.33360    0.93010    0.01810    1.000
    C26      C        0.28810    0.92760    0.00480    1.000
    H10      H        0.26640    0.93080    0.03430    1.000
    C27      C        0.27410    0.92030    0.94680    1.000
    C28      C        0.30720    0.91760    0.90390    1.000
    H11      H        0.29800    0.91110    0.86530    1.000
    C29      C        0.35340    0.92430    0.91620    1.000
    C30      C        0.36650    0.92980    0.97460    1.000
    H12      H        0.39740    0.93340    0.98440    1.000
    C31      C        0.14670    0.95740    0.80120    1.000
    C32      C        0.11440    0.84070    0.00790    1.000
    C33      C        0.16210    0.93170    0.86200    1.000
    C34      C        0.13140    0.90340    0.90440    1.000
    H13      H        0.10030    0.90190    0.89580    1.000
    C35      C        0.14650    0.87610    0.96170    1.000
    C36      C        0.19160    0.88570    0.97350    1.000
    H14      H        0.20120    0.87280    0.01160    1.000
    C37      C        0.22410    0.91350    0.93220    1.000
    C38      C        0.20840    0.94160    0.87630    1.000
    H15      H        0.22910    0.96720    0.84820    1.000
    C39      C        0.50640    0.06180    0.84840    1.000
    C40      C        0.41090    0.81340    0.71770    1.000
    C41      C        0.46250    0.99410    0.83750    1.000
    C42      C        0.45680    0.93910    0.78580    1.000
    H16      H        0.47950    0.94360    0.75760    1.000
    C43      C        0.41680    0.87570    0.77480    1.000
    C44      C        0.38370    0.86940    0.81770    1.000
    H17      H        0.35720    0.82540    0.81060    1.000
    C45      C        0.38860    0.92600    0.87050    1.000
    C46      C        0.42890    0.98930    0.88000    1.000
    H18      H        0.43340    0.02870    0.91520    1.000
    Cd5      Cd       0.88520    0.04311    0.30865    1.000
    Cd6      Cd       0.93816    0.25361    0.40652    1.000
    O21      O        0.89110    0.07890    0.40790    1.000
    O22      O        0.82100    0.04800    0.38010    1.000
    O23      O        0.67550    0.03550    0.73760    1.000
    O24      O        0.60470    0.03620    0.70830    1.000
    O25      O        0.62700    0.15610    0.44120    1.000
    O26      O        0.57480    0.19650    0.50490    1.000
    O27      O        0.03730    0.94680    0.68740    1.000
    O28      O        0.00810    0.87640    0.60390    1.000
    O29      O        0.87740    0.25370    0.79020    1.000
    O30      O        0.94020    0.16400    0.82020    1.000
    C47      C        0.84860    0.06530    0.41880    1.000
    C48      C        0.83360    0.06990    0.48190    1.000
    C49      C        0.78810    0.07240    0.49520    1.000
    H19      H        0.76640    0.06920    0.46570    1.000
    C50      C        0.77410    0.07970    0.55320    1.000
    C51      C        0.80720    0.08240    0.59610    1.000
    H20      H        0.79800    0.08890    0.63470    1.000
    C52      C        0.85340    0.07570    0.58380    1.000
    C53      C        0.86650    0.07020    0.52540    1.000
    H21      H        0.89740    0.06660    0.51560    1.000
    C54      C        0.64670    0.04260    0.69880    1.000
    C55      C        0.61440    0.15930    0.49210    1.000
    C56      C        0.66210    0.06830    0.63800    1.000
    C57      C        0.63140    0.09660    0.59560    1.000
    H22      H        0.60030    0.09810    0.60420    1.000
    C58      C        0.64650    0.12390    0.53830    1.000
    C59      C        0.69160    0.11430    0.52650    1.000
    H23      H        0.70120    0.12720    0.48840    1.000
    C60      C        0.72410    0.08650    0.56780    1.000
    C61      C        0.70840    0.05840    0.62370    1.000
    H24      H        0.72910    0.03280    0.65180    1.000
    C62      C        0.00640    0.93820    0.65160    1.000
    C63      C        0.91090    0.18660    0.78230    1.000
    C64      C        0.96250    0.00590    0.66250    1.000
    C65      C        0.95680    0.06090    0.71420    1.000
    H25      H        0.97950    0.05640    0.74240    1.000
    C66      C        0.91680    0.12430    0.72520    1.000
    C67      C        0.88370    0.13060    0.68230    1.000
    H26      H        0.85720    0.17460    0.68940    1.000
    C68      C        0.88860    0.07400    0.62950    1.000
    C69      C        0.92890    0.01070    0.62000    1.000
    H27      H        0.93340    0.97130    0.58480    1.000
    Cd7      Cd       0.61480    0.45689    0.30865    1.000
    Cd8      Cd       0.56184    0.24639    0.40652    1.000
    O31      O        0.60890    0.42110    0.40790    1.000
    O32      O        0.67900    0.45200    0.38010    1.000
    O33      O        0.82450    0.46450    0.73760    1.000
    O34      O        0.89530    0.46380    0.70830    1.000
    O35      O        0.87300    0.34390    0.44120    1.000
    O36      O        0.92520    0.30350    0.50490    1.000
    O37      O        0.46270    0.55320    0.68740    1.000
    O38      O        0.49190    0.62360    0.60390    1.000
    O39      O        0.62260    0.24630    0.79020    1.000
    O40      O        0.55980    0.33600    0.82020    1.000
    C70      C        0.65140    0.43470    0.41880    1.000
    C71      C        0.66640    0.43010    0.48190    1.000
    C72      C        0.71190    0.42760    0.49520    1.000
    H28      H        0.73360    0.43080    0.46570    1.000
    C73      C        0.72590    0.42030    0.55320    1.000
    C74      C        0.69280    0.41760    0.59610    1.000
    H29      H        0.70200    0.41110    0.63470    1.000
    C75      C        0.64660    0.42430    0.58380    1.000
    C76      C        0.63350    0.42980    0.52540    1.000
    H30      H        0.60260    0.43340    0.51560    1.000
    C77      C        0.85330    0.45740    0.69880    1.000
    C78      C        0.88560    0.34070    0.49210    1.000
    C79      C        0.83790    0.43170    0.63800    1.000
    C80      C        0.86860    0.40340    0.59560    1.000
    H31      H        0.89970    0.40190    0.60420    1.000
    C81      C        0.85350    0.37610    0.53830    1.000
    C82      C        0.80840    0.38570    0.52650    1.000
    H32      H        0.79880    0.37280    0.48840    1.000
    C83      C        0.77590    0.41350    0.56780    1.000
    C84      C        0.79160    0.44160    0.62370    1.000
    H33      H        0.77090    0.46720    0.65180    1.000
    C85      C        0.49360    0.56180    0.65160    1.000
    C86      C        0.58910    0.31340    0.78230    1.000
    C87      C        0.53750    0.49410    0.66250    1.000
    C88      C        0.54320    0.43910    0.71420    1.000
    H34      H        0.52050    0.44360    0.74240    1.000
    C89      C        0.58320    0.37570    0.72520    1.000
    C90      C        0.61630    0.36940    0.68230    1.000
    H35      H        0.64280    0.32540    0.68940    1.000
    C91      C        0.61140    0.42600    0.62950    1.000
    C92      C        0.57110    0.48930    0.62000    1.000
    H36      H        0.56660    0.52870    0.58480    1.000
    Cd9      Cd       0.88520    0.45689    0.80865    1.000
    Cd10     Cd       0.93816    0.24639    0.90652    1.000
    O41      O        0.89110    0.42110    0.90790    1.000
    O42      O        0.82100    0.45200    0.88010    1.000
    O43      O        0.67550    0.46450    0.23760    1.000
    O44      O        0.60470    0.46380    0.20830    1.000
    O45      O        0.62700    0.34390    0.94120    1.000
    O46      O        0.57480    0.30350    0.00490    1.000
    O47      O        0.03730    0.55320    0.18740    1.000
    O48      O        0.00810    0.62360    0.10390    1.000
    O49      O        0.87740    0.24630    0.29020    1.000
    O50      O        0.94020    0.33600    0.32020    1.000
    C93      C        0.84860    0.43470    0.91880    1.000
    C94      C        0.83360    0.43010    0.98190    1.000
    C95      C        0.78810    0.42760    0.99520    1.000
    H37      H        0.76640    0.43080    0.96570    1.000
    C96      C        0.77410    0.42030    0.05320    1.000
    C97      C        0.80720    0.41760    0.09610    1.000
    H38      H        0.79800    0.41110    0.13470    1.000
    C98      C        0.85340    0.42430    0.08380    1.000
    C99      C        0.86650    0.42980    0.02540    1.000
    H39      H        0.89740    0.43340    0.01560    1.000
    C100     C        0.64670    0.45740    0.19880    1.000
    C101     C        0.61440    0.34070    0.99210    1.000
    C102     C        0.66210    0.43170    0.13800    1.000
    C103     C        0.63140    0.40340    0.09560    1.000
    H40      H        0.60030    0.40190    0.10420    1.000
    C104     C        0.64650    0.37610    0.03830    1.000
    C105     C        0.69160    0.38570    0.02650    1.000
    H41      H        0.70120    0.37280    0.98840    1.000
    C106     C        0.72410    0.41350    0.06780    1.000
    C107     C        0.70840    0.44160    0.12370    1.000
    H42      H        0.72910    0.46720    0.15180    1.000
    C108     C        0.00640    0.56180    0.15160    1.000
    C109     C        0.91090    0.31340    0.28230    1.000
    C110     C        0.96250    0.49410    0.16250    1.000
    C111     C        0.95680    0.43910    0.21420    1.000
    H43      H        0.97950    0.44360    0.24240    1.000
    C112     C        0.91680    0.37570    0.22520    1.000
    C113     C        0.88370    0.36940    0.18230    1.000
    H44      H        0.85720    0.32540    0.18940    1.000
    C114     C        0.88860    0.42600    0.12950    1.000
    C115     C        0.92890    0.48930    0.12000    1.000
    H45      H        0.93340    0.52870    0.08480    1.000
    Cd11     Cd       0.61480    0.04311    0.80865    1.000
    Cd12     Cd       0.56184    0.25361    0.90652    1.000
    O51      O        0.60890    0.07890    0.90790    1.000
    O52      O        0.67900    0.04800    0.88010    1.000
    O53      O        0.82450    0.03550    0.23760    1.000
    O54      O        0.89530    0.03620    0.20830    1.000
    O55      O        0.87300    0.15610    0.94120    1.000
    O56      O        0.92520    0.19650    0.00490    1.000
    O57      O        0.46270    0.94680    0.18740    1.000
    O58      O        0.49190    0.87640    0.10390    1.000
    O59      O        0.62260    0.25370    0.29020    1.000
    O60      O        0.55980    0.16400    0.32020    1.000
    C116     C        0.65140    0.06530    0.91880    1.000
    C117     C        0.66640    0.06990    0.98190    1.000
    C118     C        0.71190    0.07240    0.99520    1.000
    H46      H        0.73360    0.06920    0.96570    1.000
    C119     C        0.72590    0.07970    0.05320    1.000
    C120     C        0.69280    0.08240    0.09610    1.000
    H47      H        0.70200    0.08890    0.13470    1.000
    C121     C        0.64660    0.07570    0.08380    1.000
    C122     C        0.63350    0.07020    0.02540    1.000
    H48      H        0.60260    0.06660    0.01560    1.000
    C123     C        0.85330    0.04260    0.19880    1.000
    C124     C        0.88560    0.15930    0.99210    1.000
    C125     C        0.83790    0.06830    0.13800    1.000
    C126     C        0.86860    0.09660    0.09560    1.000
    H49      H        0.89970    0.09810    0.10420    1.000
    C127     C        0.85350    0.12390    0.03830    1.000
    C128     C        0.80840    0.11430    0.02650    1.000
    H50      H        0.79880    0.12720    0.98840    1.000
    C129     C        0.77590    0.08650    0.06780    1.000
    C130     C        0.79160    0.05840    0.12370    1.000
    H51      H        0.77090    0.03280    0.15180    1.000
    C131     C        0.49360    0.93820    0.15160    1.000
    C132     C        0.58910    0.18660    0.28230    1.000
    C133     C        0.53750    0.00590    0.16250    1.000
    C134     C        0.54320    0.06090    0.21420    1.000
    H52      H        0.52050    0.05640    0.24240    1.000
    C135     C        0.58320    0.12430    0.22520    1.000
    C136     C        0.61630    0.13060    0.18230    1.000
    H53      H        0.64280    0.17460    0.18940    1.000
    C137     C        0.61140    0.07400    0.12950    1.000
    C138     C        0.57110    0.01070    0.12000    1.000
    H54      H        0.56660    0.97130    0.08480    1.000
    Cd13     Cd       0.11480    0.95689    0.69135    1.000
    Cd14     Cd       0.06184    0.74639    0.59348    1.000
    O61      O        0.10890    0.92110    0.59210    1.000
    O62      O        0.17900    0.95200    0.61990    1.000
    O63      O        0.32450    0.96450    0.26240    1.000
    O64      O        0.39530    0.96380    0.29170    1.000
    O65      O        0.37300    0.84390    0.55880    1.000
    O66      O        0.42520    0.80350    0.49510    1.000
    O67      O        0.96270    0.05320    0.31260    1.000
    O68      O        0.99190    0.12360    0.39610    1.000
    O69      O        0.12260    0.74630    0.20980    1.000
    O70      O        0.05980    0.83600    0.17980    1.000
    C139     C        0.15140    0.93470    0.58120    1.000
    C140     C        0.16640    0.93010    0.51810    1.000
    C141     C        0.21190    0.92760    0.50480    1.000
    H55      H        0.23360    0.93080    0.53430    1.000
    C142     C        0.22590    0.92030    0.44680    1.000
    C143     C        0.19280    0.91760    0.40390    1.000
    H56      H        0.20200    0.91110    0.36530    1.000
    C144     C        0.14660    0.92430    0.41620    1.000
    C145     C        0.13350    0.92980    0.47460    1.000
    H57      H        0.10260    0.93340    0.48440    1.000
    C146     C        0.35330    0.95740    0.30120    1.000
    C147     C        0.38560    0.84070    0.50790    1.000
    C148     C        0.33790    0.93170    0.36200    1.000
    C149     C        0.36860    0.90340    0.40440    1.000
    H58      H        0.39970    0.90190    0.39580    1.000
    C150     C        0.35350    0.87610    0.46170    1.000
    C151     C        0.30840    0.88570    0.47350    1.000
    H59      H        0.29880    0.87280    0.51160    1.000
    C152     C        0.27590    0.91350    0.43220    1.000
    C153     C        0.29160    0.94160    0.37630    1.000
    H60      H        0.27090    0.96720    0.34820    1.000
    C154     C        0.99360    0.06180    0.34840    1.000
    C155     C        0.08910    0.81340    0.21770    1.000
    C156     C        0.03750    0.99410    0.33750    1.000
    C157     C        0.04320    0.93910    0.28580    1.000
    H61      H        0.02050    0.94360    0.25760    1.000
    C158     C        0.08320    0.87570    0.27480    1.000
    C159     C        0.11630    0.86940    0.31770    1.000
    H62      H        0.14280    0.82540    0.31060    1.000
    C160     C        0.11140    0.92600    0.37050    1.000
    C161     C        0.07110    0.98930    0.38000    1.000
    H63      H        0.06660    0.02870    0.41520    1.000
    Cd15     Cd       0.38520    0.54311    0.69135    1.000
    Cd16     Cd       0.43816    0.75361    0.59348    1.000
    O71      O        0.39110    0.57890    0.59210    1.000
    O72      O        0.32100    0.54800    0.61990    1.000
    O73      O        0.17550    0.53550    0.26240    1.000
    O74      O        0.10470    0.53620    0.29170    1.000
    O75      O        0.12700    0.65610    0.55880    1.000
    O76      O        0.07480    0.69650    0.49510    1.000
    O77      O        0.53730    0.44680    0.31260    1.000
    O78      O        0.50810    0.37640    0.39610    1.000
    O79      O        0.37740    0.75370    0.20980    1.000
    O80      O        0.44020    0.66400    0.17980    1.000
    C162     C        0.34860    0.56530    0.58120    1.000
    C163     C        0.33360    0.56990    0.51810    1.000
    C164     C        0.28810    0.57240    0.50480    1.000
    H64      H        0.26640    0.56920    0.53430    1.000
    C165     C        0.27410    0.57970    0.44680    1.000
    C166     C        0.30720    0.58240    0.40390    1.000
    H65      H        0.29800    0.58890    0.36530    1.000
    C167     C        0.35340    0.57570    0.41620    1.000
    C168     C        0.36650    0.57020    0.47460    1.000
    H66      H        0.39740    0.56660    0.48440    1.000
    C169     C        0.14670    0.54260    0.30120    1.000
    C170     C        0.11440    0.65930    0.50790    1.000
    C171     C        0.16210    0.56830    0.36200    1.000
    C172     C        0.13140    0.59660    0.40440    1.000
    H67      H        0.10030    0.59810    0.39580    1.000
    C173     C        0.14650    0.62390    0.46170    1.000
    C174     C        0.19160    0.61430    0.47350    1.000
    H68      H        0.20120    0.62720    0.51160    1.000
    C175     C        0.22410    0.58650    0.43220    1.000
    C176     C        0.20840    0.55840    0.37630    1.000
    H69      H        0.22910    0.53280    0.34820    1.000
    C177     C        0.50640    0.43820    0.34840    1.000
    C178     C        0.41090    0.68660    0.21770    1.000
    C179     C        0.46250    0.50590    0.33750    1.000
    C180     C        0.45680    0.56090    0.28580    1.000
    H70      H        0.47950    0.55640    0.25760    1.000
    C181     C        0.41680    0.62430    0.27480    1.000
    C182     C        0.38370    0.63060    0.31770    1.000
    H71      H        0.35720    0.67460    0.31060    1.000
    C183     C        0.38860    0.57400    0.37050    1.000
    C184     C        0.42890    0.51070    0.38000    1.000
    H72      H        0.43340    0.47130    0.41520    1.000
