# CIF file generated by openbabel 3.1.0, see https://openbabel.org
data_I
_chemical_name_common 'image0'
_cell_length_a 11.078
_cell_length_b 16.012
_cell_length_c 23.804
_cell_angle_alpha 90
_cell_angle_beta 95.333
_cell_angle_gamma 90
_space_group_name_H-M_alt 'P 1'
_space_group_name_Hall 'P 1'
loop_
    _symmetry_equiv_pos_as_xyz
    x,y,z
loop_
    _atom_site_label
    _atom_site_type_symbol
    _atom_site_fract_x
    _atom_site_fract_y
    _atom_site_fract_z
    _atom_site_occupancy
    Zn1      Zn       0.95270    0.48228    0.15296    1.000
    Zn2      Zn       0.15349    0.34211    0.24084    1.000
    O1       O        0.15260    0.16860    0.65738    1.000
    O2       O        0.07520    0.06160    0.60483    1.000
    O3       O        0.03640    0.84640    0.26529    1.000
    O4       O        0.15000    0.88600    0.34180    1.000
    O5       O        0.18010    0.46710    0.24693    1.000
    O6       O        0.03810    0.55190    0.20811    1.000
    O7       O        0.13140    0.05210    0.40342    1.000
    O8       O        0.19990    0.16040    0.36220    1.000
    C1       C        0.30100    0.49320    0.43810    1.000
    H1       H        0.23110    0.50490    0.41470    1.000
    C2       C        0.30800    0.42160    0.46570    1.000
    H2       H        0.24420    0.38400    0.46000    1.000
    C3       C        0.41030    0.39980    0.50410    1.000
    C4       C        0.49740    0.53930    0.48410    1.000
    C5       C        0.39860    0.55470    0.44289    1.000
    C6       C        0.39590    0.62940    0.41210    1.000
    C7       C        0.48740    0.68660    0.42490    1.000
    H3       H        0.48590    0.73590    0.40410    1.000
    C8       C        0.41800    0.32480    0.53290    1.000
    C9       C        0.32940    0.25620    0.52320    1.000
    C10      C        0.29750    0.22370    0.47020    1.000
    H4       H        0.32890    0.24720    0.43890    1.000
    C11      C        0.21800    0.15550    0.46300    1.000
    C12      C        0.16630    0.12370    0.50940    1.000
    H5       H        0.11160    0.07960    0.50480    1.000
    C13      C        0.19540    0.15680    0.56150    1.000
    C14      C        0.27700    0.22320    0.56830    1.000
    H6       H        0.29630    0.24560    0.60410    1.000
    C15      C        0.30000    0.64760    0.36480    1.000
    C16      C        0.25250    0.72680    0.35800    1.000
    H7       H        0.27620    0.76820    0.38410    1.000
    C17      C        0.16780    0.74560    0.31160    1.000
    C18      C        0.12940    0.68470    0.27550    1.000
    H8       H        0.06980    0.69640    0.24640    1.000
    C19      C        0.17650    0.60500    0.28070    1.000
    C20      C        0.26600    0.58720    0.32480    1.000
    H9       H        0.30260    0.53490    0.32710    1.000
    C21      C        0.12890    0.53490    0.24220    1.000
    C22      C        0.13610    0.12780    0.61180    1.000
    C23      C        0.11480    0.83200    0.30540    1.000
    C24      C        0.18440    0.12050    0.40440    1.000
    Zn3      Zn       0.04730    0.98228    0.34704    1.000
    Zn4      Zn       0.84651    0.84211    0.25916    1.000
    O9       O        0.84740    0.66860    0.84262    1.000
    O10      O        0.92480    0.56160    0.89517    1.000
    O11      O        0.96360    0.34640    0.23471    1.000
    O12      O        0.85000    0.38600    0.15820    1.000
    O13      O        0.81990    0.96710    0.25307    1.000
    O14      O        0.96190    0.05190    0.29189    1.000
    O15      O        0.86860    0.55210    0.09658    1.000
    O16      O        0.80010    0.66040    0.13780    1.000
    C25      C        0.69900    0.99320    0.06190    1.000
    H10      H        0.76890    0.00490    0.08530    1.000
    C26      C        0.69200    0.92160    0.03430    1.000
    H11      H        0.75580    0.88400    0.04000    1.000
    C27      C        0.58970    0.89980    0.99590    1.000
    C28      C        0.50260    0.03930    0.01590    1.000
    C29      C        0.60140    0.05470    0.05711    1.000
    C30      C        0.60410    0.12940    0.08790    1.000
    C31      C        0.51260    0.18660    0.07510    1.000
    H12      H        0.51410    0.23590    0.09590    1.000
    C32      C        0.58200    0.82480    0.96710    1.000
    C33      C        0.67060    0.75620    0.97680    1.000
    C34      C        0.70250    0.72370    0.02980    1.000
    H13      H        0.67110    0.74720    0.06110    1.000
    C35      C        0.78200    0.65550    0.03700    1.000
    C36      C        0.83370    0.62370    0.99060    1.000
    H14      H        0.88840    0.57960    0.99520    1.000
    C37      C        0.80460    0.65680    0.93850    1.000
    C38      C        0.72300    0.72320    0.93170    1.000
    H15      H        0.70370    0.74560    0.89590    1.000
    C39      C        0.70000    0.14760    0.13520    1.000
    C40      C        0.74750    0.22680    0.14200    1.000
    H16      H        0.72380    0.26820    0.11590    1.000
    C41      C        0.83220    0.24560    0.18840    1.000
    C42      C        0.87060    0.18470    0.22450    1.000
    H17      H        0.93020    0.19640    0.25360    1.000
    C43      C        0.82350    0.10500    0.21930    1.000
    C44      C        0.73400    0.08720    0.17520    1.000
    H18      H        0.69740    0.03490    0.17290    1.000
    C45      C        0.87110    0.03490    0.25780    1.000
    C46      C        0.86390    0.62780    0.88820    1.000
    C47      C        0.88520    0.33200    0.19460    1.000
    C48      C        0.81560    0.62050    0.09560    1.000
    Zn5      Zn       0.04730    0.51772    0.84704    1.000
    Zn6      Zn       0.84651    0.65789    0.75916    1.000
    O17      O        0.84740    0.83140    0.34262    1.000
    O18      O        0.92480    0.93840    0.39517    1.000
    O19      O        0.96360    0.15360    0.73471    1.000
    O20      O        0.85000    0.11400    0.65820    1.000
    O21      O        0.81990    0.53290    0.75307    1.000
    O22      O        0.96190    0.44810    0.79189    1.000
    O23      O        0.86860    0.94790    0.59658    1.000
    O24      O        0.80010    0.83960    0.63780    1.000
    C49      C        0.69900    0.50680    0.56190    1.000
    H19      H        0.76890    0.49510    0.58530    1.000
    C50      C        0.69200    0.57840    0.53430    1.000
    H20      H        0.75580    0.61600    0.54000    1.000
    C51      C        0.58970    0.60020    0.49590    1.000
    C52      C        0.50260    0.46070    0.51590    1.000
    C53      C        0.60140    0.44530    0.55711    1.000
    C54      C        0.60410    0.37060    0.58790    1.000
    C55      C        0.51260    0.31340    0.57510    1.000
    H21      H        0.51410    0.26410    0.59590    1.000
    C56      C        0.58200    0.67520    0.46710    1.000
    C57      C        0.67060    0.74380    0.47680    1.000
    C58      C        0.70250    0.77630    0.52980    1.000
    H22      H        0.67110    0.75280    0.56110    1.000
    C59      C        0.78200    0.84450    0.53700    1.000
    C60      C        0.83370    0.87630    0.49060    1.000
    H23      H        0.88840    0.92040    0.49520    1.000
    C61      C        0.80460    0.84320    0.43850    1.000
    C62      C        0.72300    0.77680    0.43170    1.000
    H24      H        0.70370    0.75440    0.39590    1.000
    C63      C        0.70000    0.35240    0.63520    1.000
    C64      C        0.74750    0.27320    0.64200    1.000
    H25      H        0.72380    0.23180    0.61590    1.000
    C65      C        0.83220    0.25440    0.68840    1.000
    C66      C        0.87060    0.31530    0.72450    1.000
    H26      H        0.93020    0.30360    0.75360    1.000
    C67      C        0.82350    0.39500    0.71930    1.000
    C68      C        0.73400    0.41280    0.67520    1.000
    H27      H        0.69740    0.46510    0.67290    1.000
    C69      C        0.87110    0.46510    0.75780    1.000
    C70      C        0.86390    0.87220    0.38820    1.000
    C71      C        0.88520    0.16800    0.69460    1.000
    C72      C        0.81560    0.87950    0.59560    1.000
    Zn7      Zn       0.95270    0.01772    0.65296    1.000
    Zn8      Zn       0.15349    0.15789    0.74084    1.000
    O25      O        0.15260    0.33140    0.15738    1.000
    O26      O        0.07520    0.43840    0.10483    1.000
    O27      O        0.03640    0.65360    0.76529    1.000
    O28      O        0.15000    0.61400    0.84180    1.000
    O29      O        0.18010    0.03290    0.74693    1.000
    O30      O        0.03810    0.94810    0.70811    1.000
    O31      O        0.13140    0.44790    0.90342    1.000
    O32      O        0.19990    0.33960    0.86220    1.000
    C73      C        0.30100    0.00680    0.93810    1.000
    H28      H        0.23110    0.99510    0.91470    1.000
    C74      C        0.30800    0.07840    0.96570    1.000
    H29      H        0.24420    0.11600    0.96000    1.000
    C75      C        0.41030    0.10020    0.00410    1.000
    C76      C        0.49740    0.96070    0.98410    1.000
    C77      C        0.39860    0.94530    0.94289    1.000
    C78      C        0.39590    0.87060    0.91210    1.000
    C79      C        0.48740    0.81340    0.92490    1.000
    H30      H        0.48590    0.76410    0.90410    1.000
    C80      C        0.41800    0.17520    0.03290    1.000
    C81      C        0.32940    0.24380    0.02320    1.000
    C82      C        0.29750    0.27630    0.97020    1.000
    H31      H        0.32890    0.25280    0.93890    1.000
    C83      C        0.21800    0.34450    0.96300    1.000
    C84      C        0.16630    0.37630    0.00940    1.000
    H32      H        0.11160    0.42040    0.00480    1.000
    C85      C        0.19540    0.34320    0.06150    1.000
    C86      C        0.27700    0.27680    0.06830    1.000
    H33      H        0.29630    0.25440    0.10410    1.000
    C87      C        0.30000    0.85240    0.86480    1.000
    C88      C        0.25250    0.77320    0.85800    1.000
    H34      H        0.27620    0.73180    0.88410    1.000
    C89      C        0.16780    0.75440    0.81160    1.000
    C90      C        0.12940    0.81530    0.77550    1.000
    H35      H        0.06980    0.80360    0.74640    1.000
    C91      C        0.17650    0.89500    0.78070    1.000
    C92      C        0.26600    0.91280    0.82480    1.000
    H36      H        0.30260    0.96510    0.82710    1.000
    C93      C        0.12890    0.96510    0.74220    1.000
    C94      C        0.13610    0.37220    0.11180    1.000
    C95      C        0.11480    0.66800    0.80540    1.000
    C96      C        0.18440    0.37950    0.90440    1.000
