# CIF file generated by openbabel 3.1.0, see https://openbabel.org
data_I
_chemical_name_common 'RONZID_clean'
_cell_length_a 9.042
_cell_length_b 9.042
_cell_length_c 12.027
_cell_angle_alpha 90
_cell_angle_beta 90
_cell_angle_gamma 90
_space_group_name_H-M_alt 'P 1'
_space_group_name_Hall 'P 1'
loop_
    _symmetry_equiv_pos_as_xyz
    x,y,z
loop_
    _atom_site_label
    _atom_site_type_symbol
    _atom_site_fract_x
    _atom_site_fract_y
    _atom_site_fract_z
    _atom_site_occupancy
    Cd1      Cd       0.69022    0.69022    0.00000    1.000
    Cd2      Cd       0.30978    0.30978    0.50000    1.000
    Cd3      Cd       0.80978    0.19022    0.75000    1.000
    Cd4      Cd       0.19022    0.80978    0.25000    1.000
    C1       C        0.73300    0.88760    0.89390    1.000
    C2       C        0.26700    0.11240    0.39390    1.000
    C3       C        0.61240    0.23300    0.64390    1.000
    C4       C        0.38760    0.76700    0.14390    1.000
    C5       C        0.76700    0.38760    0.85610    1.000
    C6       C        0.23300    0.61240    0.35610    1.000
    C7       C        0.88760    0.73300    0.10610    1.000
    C8       C        0.11240    0.26700    0.60610    1.000
    N1       N        0.48930    0.73940    0.09410    1.000
    N2       N        0.51070    0.26060    0.59410    1.000
    N3       N        0.76060    0.98930    0.84410    1.000
    N4       N        0.23940    0.01070    0.34410    1.000
    N5       N        0.01070    0.23940    0.65590    1.000
    N6       N        0.98930    0.76060    0.15590    1.000
    N7       N        0.73940    0.48930    0.90590    1.000
    N8       N        0.26060    0.51070    0.40590    1.000
