# CIF file generated by openbabel 3.1.0, see https://openbabel.org
data_I
_chemical_name_common 'UNABUH_clean'
_cell_length_a 8.405
_cell_length_b 10.293
_cell_length_c 17.6785
_cell_angle_alpha 90
_cell_angle_beta 102.813
_cell_angle_gamma 90
_space_group_name_H-M_alt 'P 1'
_space_group_name_Hall 'P 1'
loop_
    _symmetry_equiv_pos_as_xyz
    x,y,z
loop_
    _atom_site_label
    _atom_site_type_symbol
    _atom_site_fract_x
    _atom_site_fract_y
    _atom_site_fract_z
    _atom_site_occupancy
    Cu1      Cu       0.32634    0.44245    0.93198    1.000
    Cu2      Cu       0.82634    0.05755    0.43198    1.000
    H1       H        0.36000    0.66290    0.59460    1.000
    H2       H        0.31330    0.55000    0.70000    1.000
    H3       H        0.03630    0.22770    0.66920    1.000
    H4       H        0.14380    0.41050    0.48450    1.000
    H5       H        0.73530    0.93550    0.56450    1.000
    H6       H        0.56870    0.77240    0.59170    1.000
    H7       H        0.39230    0.72840    0.36310    1.000
    H8       H        0.56390    0.89110    0.34130    1.000
    H9       H        0.86000    0.83710    0.09460    1.000
    H10      H        0.81330    0.95000    0.20000    1.000
    H11      H        0.53630    0.27230    0.16920    1.000
    H12      H        0.64380    0.08950    0.98450    1.000
    H13      H        0.23530    0.56450    0.06450    1.000
    H14      H        0.06870    0.72760    0.09170    1.000
    H15      H        0.89230    0.77160    0.86310    1.000
    H16      H        0.06390    0.60890    0.84130    1.000
    C1       C        0.24416    0.49710    0.58786    1.000
    C2       C        0.25410    0.48810    0.66700    1.000
    C3       C        0.17708    0.38800    0.69788    1.000
    C4       C        0.08788    0.29520    0.64908    1.000
    C5       C        0.07716    0.30510    0.56946    1.000
    C6       C        0.15318    0.40500    0.53778    1.000
    C7       C        0.35947    0.61520    0.49097    1.000
    C8       C        0.66620    0.89270    0.52380    1.000
    C9       C        0.56635    0.79490    0.54055    1.000
    C10      C        0.46316    0.73100    0.48026    1.000
    C11      C        0.46178    0.76870    0.40468    1.000
    C12      C        0.56476    0.86660    0.39206    1.000
    C13      C        0.19462    0.37920    0.78422    1.000
    C14      C        0.98548    0.20690    0.51648    1.000
    C15      C        0.74416    0.00290    0.08786    1.000
    C16      C        0.75410    0.01190    0.16700    1.000
    C17      C        0.67708    0.11200    0.19788    1.000
    C18      C        0.58788    0.20480    0.14908    1.000
    C19      C        0.57716    0.19490    0.06946    1.000
    C20      C        0.65318    0.09500    0.03778    1.000
    C21      C        0.85947    0.88480    0.99097    1.000
    C22      C        0.16620    0.60730    0.02380    1.000
    C23      C        0.06635    0.70510    0.04055    1.000
    C24      C        0.96316    0.76900    0.98026    1.000
    C25      C        0.96178    0.73130    0.90468    1.000
    C26      C        0.06476    0.63340    0.89206    1.000
    C27      C        0.69462    0.12080    0.28422    1.000
    C28      C        0.48548    0.29310    0.01648    1.000
    N1       N        0.32692    0.60160    0.56182    1.000
    N2       N        0.66638    0.92780    0.45068    1.000
    N3       N        0.82692    0.89840    0.06182    1.000
    N4       N        0.16638    0.57220    0.95068    1.000
    O1       O        0.31234    0.54090    0.43674    1.000
    O2       O        0.29285    0.46250    0.82375    1.000
    O3       O        0.11932    0.29740    0.81292    1.000
    O4       O        0.91978    0.10920    0.54178    1.000
    O5       O        0.97095    0.21530    0.44385    1.000
    O6       O        0.81234    0.95910    0.93674    1.000
    O7       O        0.79285    0.03750    0.32375    1.000
    O8       O        0.61932    0.20260    0.31292    1.000
    O9       O        0.41978    0.39080    0.04178    1.000
    O10      O        0.47095    0.28470    0.94385    1.000
    Cu3      Cu       0.17366    0.94245    0.56802    1.000
    Cu4      Cu       0.67366    0.55755    0.06802    1.000
    H17      H        0.14000    0.16290    0.90540    1.000
    H18      H        0.18670    0.05000    0.80000    1.000
    H19      H        0.46370    0.72770    0.83080    1.000
    H20      H        0.35620    0.91050    0.01550    1.000
    H21      H        0.76470    0.43550    0.93550    1.000
    H22      H        0.93130    0.27240    0.90830    1.000
    H23      H        0.10770    0.22840    0.13690    1.000
    H24      H        0.93610    0.39110    0.15870    1.000
    H25      H        0.64000    0.33710    0.40540    1.000
    H26      H        0.68670    0.45000    0.30000    1.000
    H27      H        0.96370    0.77230    0.33080    1.000
    H28      H        0.85620    0.58950    0.51550    1.000
    H29      H        0.26470    0.06450    0.43550    1.000
    H30      H        0.43130    0.22760    0.40830    1.000
    H31      H        0.60770    0.27160    0.63690    1.000
    H32      H        0.43610    0.10890    0.65870    1.000
    C29      C        0.25584    0.99710    0.91214    1.000
    C30      C        0.24590    0.98810    0.83300    1.000
    C31      C        0.32292    0.88800    0.80212    1.000
    C32      C        0.41212    0.79520    0.85092    1.000
    C33      C        0.42284    0.80510    0.93054    1.000
    C34      C        0.34682    0.90500    0.96222    1.000
    C35      C        0.14053    0.11520    0.00903    1.000
    C36      C        0.83380    0.39270    0.97620    1.000
    C37      C        0.93365    0.29490    0.95945    1.000
    C38      C        0.03684    0.23100    0.01974    1.000
    C39      C        0.03822    0.26870    0.09532    1.000
    C40      C        0.93524    0.36660    0.10794    1.000
    C41      C        0.30538    0.87920    0.71578    1.000
    C42      C        0.51452    0.70690    0.98352    1.000
    C43      C        0.75584    0.50290    0.41214    1.000
    C44      C        0.74590    0.51190    0.33300    1.000
    C45      C        0.82292    0.61200    0.30212    1.000
    C46      C        0.91212    0.70480    0.35092    1.000
    C47      C        0.92284    0.69490    0.43054    1.000
    C48      C        0.84682    0.59500    0.46222    1.000
    C49      C        0.64053    0.38480    0.50903    1.000
    C50      C        0.33380    0.10730    0.47620    1.000
    C51      C        0.43365    0.20510    0.45945    1.000
    C52      C        0.53684    0.26900    0.51974    1.000
    C53      C        0.53822    0.23130    0.59532    1.000
    C54      C        0.43524    0.13340    0.60794    1.000
    C55      C        0.80538    0.62080    0.21578    1.000
    C56      C        0.01452    0.79310    0.48352    1.000
    N5       N        0.17308    0.10160    0.93818    1.000
    N6       N        0.83362    0.42780    0.04932    1.000
    N7       N        0.67308    0.39840    0.43818    1.000
    N8       N        0.33362    0.07220    0.54932    1.000
    O11      O        0.18766    0.04090    0.06326    1.000
    O12      O        0.20715    0.96250    0.67625    1.000
    O13      O        0.38068    0.79740    0.68708    1.000
    O14      O        0.58022    0.60920    0.95822    1.000
    O15      O        0.52905    0.71530    0.05615    1.000
    O16      O        0.68766    0.45910    0.56326    1.000
    O17      O        0.70715    0.53750    0.17625    1.000
    O18      O        0.88068    0.70260    0.18708    1.000
    O19      O        0.08022    0.89080    0.45822    1.000
    O20      O        0.02905    0.78470    0.55615    1.000
