# CIF file generated by openbabel 3.1.0, see https://openbabel.org
data_I
_chemical_name_common 'image0'
_cell_length_a 27.63
_cell_length_b 13.8118
_cell_length_c 17.3604
_cell_angle_alpha 90
_cell_angle_beta 99.316
_cell_angle_gamma 90
_space_group_name_H-M_alt 'P 1'
_space_group_name_Hall 'P 1'
loop_
    _symmetry_equiv_pos_as_xyz
    x,y,z
loop_
    _atom_site_label
    _atom_site_type_symbol
    _atom_site_fract_x
    _atom_site_fract_y
    _atom_site_fract_z
    _atom_site_occupancy
    W1       W        0.63971    0.45005    0.62301    1.000
    Cu1      Cu       0.68901    0.28035    0.62181    1.000
    Cu2      Cu       0.58944    0.38682    0.73645    1.000
    Cu3      Cu       0.71143    0.51308    0.73649    1.000
    S1       S        0.72128    0.43395    0.62383    1.000
    S2       S        0.60612    0.30232    0.62859    1.000
    S3       S        0.62799    0.53490    0.72956    1.000
    N1       N        0.52290    0.39880    0.75170    1.000
    C1       C        0.51820    0.38650    0.74300    1.000
    N2       N        0.76026    0.08200    0.16850    1.000
    N3       N        0.74851    0.12360    0.72140    1.000
    N4       N        0.68093    0.22450    0.50610    1.000
    N5       N        0.62394    0.31080    0.83460    1.000
    C2       C        0.72523    0.18130    0.68490    1.000
    C3       C        0.65810    0.24500    0.82870    1.000
    H1       H        0.66460    0.22950    0.77800    1.000
    C4       C        0.70118    0.20040    0.11270    1.000
    H2       H        0.67960    0.25140    0.12110    1.000
    C5       C        0.68485    0.19740    0.89160    1.000
    H3       H        0.70910    0.15140    0.88380    1.000
    C6       C        0.63212    0.11180    0.27690    1.000
    C7       C        0.64260    0.01710    0.25670    1.000
    H4       H        0.66130    0.97590    0.29410    1.000
    C8       C        0.67593    0.21760    0.96670    1.000
    C9       C        0.72936    0.15380    0.17520    1.000
    H5       H        0.72630    0.17480    0.22630    1.000
    C10      C        0.64964    0.15140    0.35550    1.000
    C11      C        0.76470    0.05510    0.09590    1.000
    H6       H        0.78740    0.00540    0.08950    1.000
    C12      C        0.70521    0.17050    0.03670    1.000
    C13      C        0.65390    0.09140    0.42180    1.000
    H7       H        0.64600    0.02450    0.41670    1.000
    C14      C        0.73770    0.09600    0.02920    1.000
    H8       H        0.74160    0.07310    0.97900    1.000
    C15      C        0.67770    0.28090    0.44250    1.000
    H9       H        0.68630    0.34720    0.44930    1.000
    C16      C        0.64030    0.28560    0.97280    1.000
    H10      H        0.63310    0.30280    0.02270    1.000
    C17      C        0.66250    0.24710    0.36770    1.000
    H11      H        0.66080    0.29000    0.32450    1.000
    C18      C        0.62580    0.98340    0.18200    1.000
    H12      H        0.63370    0.91900    0.16940    1.000
    C19      C        0.60460    0.16730    0.21870    1.000
    H13      H        0.59640    0.23240    0.22890    1.000
    C20      C        0.58930    0.12690    0.14610    1.000
    H14      H        0.57060    0.16610    0.10730    1.000
    C21      C        0.61500    0.32930    0.90620    1.000
    H15      H        0.58990    0.37460    0.91210    1.000
    N6       N        0.59920    0.03670    0.12720    1.000
    C22      C        0.66950    0.13110    0.49400    1.000
    H16      H        0.67250    0.08960    0.53810    1.000
    W2       W        0.13971    0.95005    0.62301    1.000
    Cu4      Cu       0.18901    0.78035    0.62181    1.000
    Cu5      Cu       0.08944    0.88682    0.73645    1.000
    Cu6      Cu       0.21143    0.01308    0.73649    1.000
    S4       S        0.22128    0.93395    0.62383    1.000
    S5       S        0.10612    0.80232    0.62859    1.000
    S6       S        0.12799    0.03490    0.72956    1.000
    N7       N        0.02290    0.89880    0.75170    1.000
    C23      C        0.01820    0.88650    0.74300    1.000
    N8       N        0.26026    0.58200    0.16850    1.000
    N9       N        0.24851    0.62360    0.72140    1.000
    N10      N        0.18093    0.72450    0.50610    1.000
    N11      N        0.12394    0.81080    0.83460    1.000
    C24      C        0.22523    0.68130    0.68490    1.000
    C25      C        0.15810    0.74500    0.82870    1.000
    H17      H        0.16460    0.72950    0.77800    1.000
    C26      C        0.20118    0.70040    0.11270    1.000
    H18      H        0.17960    0.75140    0.12110    1.000
    C27      C        0.18485    0.69740    0.89160    1.000
    H19      H        0.20910    0.65140    0.88380    1.000
    C28      C        0.13212    0.61180    0.27690    1.000
    C29      C        0.14260    0.51710    0.25670    1.000
    H20      H        0.16130    0.47590    0.29410    1.000
    C30      C        0.17593    0.71760    0.96670    1.000
    C31      C        0.22936    0.65380    0.17520    1.000
    H21      H        0.22630    0.67480    0.22630    1.000
    C32      C        0.14964    0.65140    0.35550    1.000
    C33      C        0.26470    0.55510    0.09590    1.000
    H22      H        0.28740    0.50540    0.08950    1.000
    C34      C        0.20521    0.67050    0.03670    1.000
    C35      C        0.15390    0.59140    0.42180    1.000
    H23      H        0.14600    0.52450    0.41670    1.000
    C36      C        0.23770    0.59600    0.02920    1.000
    H24      H        0.24160    0.57310    0.97900    1.000
    C37      C        0.17770    0.78090    0.44250    1.000
    H25      H        0.18630    0.84720    0.44930    1.000
    C38      C        0.14030    0.78560    0.97280    1.000
    H26      H        0.13310    0.80280    0.02270    1.000
    C39      C        0.16250    0.74710    0.36770    1.000
    H27      H        0.16080    0.79000    0.32450    1.000
    C40      C        0.12580    0.48340    0.18200    1.000
    H28      H        0.13370    0.41900    0.16940    1.000
    C41      C        0.10460    0.66730    0.21870    1.000
    H29      H        0.09640    0.73240    0.22890    1.000
    C42      C        0.08930    0.62690    0.14610    1.000
    H30      H        0.07060    0.66610    0.10730    1.000
    C43      C        0.11500    0.82930    0.90620    1.000
    H31      H        0.08990    0.87460    0.91210    1.000
    N12      N        0.09920    0.53670    0.12720    1.000
    C44      C        0.16950    0.63110    0.49400    1.000
    H32      H        0.17250    0.58960    0.53810    1.000
    W3       W        0.36029    0.45005    0.87699    1.000
    Cu7      Cu       0.31099    0.28035    0.87819    1.000
    Cu8      Cu       0.41056    0.38682    0.76355    1.000
    Cu9      Cu       0.28857    0.51308    0.76351    1.000
    S7       S        0.27872    0.43395    0.87617    1.000
    S8       S        0.39388    0.30232    0.87141    1.000
    S9       S        0.37201    0.53490    0.77044    1.000
    N13      N        0.47710    0.39880    0.74830    1.000
    C45      C        0.48180    0.38650    0.75700    1.000
    N14      N        0.23974    0.08200    0.33150    1.000
    N15      N        0.25149    0.12360    0.77860    1.000
    N16      N        0.31907    0.22450    0.99390    1.000
    N17      N        0.37606    0.31080    0.66540    1.000
    C46      C        0.27477    0.18130    0.81510    1.000
    C47      C        0.34190    0.24500    0.67130    1.000
    H33      H        0.33540    0.22950    0.72200    1.000
    C48      C        0.29882    0.20040    0.38730    1.000
    H34      H        0.32040    0.25140    0.37890    1.000
    C49      C        0.31515    0.19740    0.60840    1.000
    H35      H        0.29090    0.15140    0.61620    1.000
    C50      C        0.36788    0.11180    0.22310    1.000
    C51      C        0.35740    0.01710    0.24330    1.000
    H36      H        0.33870    0.97590    0.20590    1.000
    C52      C        0.32407    0.21760    0.53330    1.000
    C53      C        0.27064    0.15380    0.32480    1.000
    H37      H        0.27370    0.17480    0.27370    1.000
    C54      C        0.35036    0.15140    0.14450    1.000
    C55      C        0.23530    0.05510    0.40410    1.000
    H38      H        0.21260    0.00540    0.41050    1.000
    C56      C        0.29479    0.17050    0.46330    1.000
    C57      C        0.34610    0.09140    0.07820    1.000
    H39      H        0.35400    0.02450    0.08330    1.000
    C58      C        0.26230    0.09600    0.47080    1.000
    H40      H        0.25840    0.07310    0.52100    1.000
    C59      C        0.32230    0.28090    0.05750    1.000
    H41      H        0.31370    0.34720    0.05070    1.000
    C60      C        0.35970    0.28560    0.52720    1.000
    H42      H        0.36690    0.30280    0.47730    1.000
    C61      C        0.33750    0.24710    0.13230    1.000
    H43      H        0.33920    0.29000    0.17550    1.000
    C62      C        0.37420    0.98340    0.31800    1.000
    H44      H        0.36630    0.91900    0.33060    1.000
    C63      C        0.39540    0.16730    0.28130    1.000
    H45      H        0.40360    0.23240    0.27110    1.000
    C64      C        0.41070    0.12690    0.35390    1.000
    H46      H        0.42940    0.16610    0.39270    1.000
    C65      C        0.38500    0.32930    0.59380    1.000
    H47      H        0.41010    0.37460    0.58790    1.000
    N18      N        0.40080    0.03670    0.37280    1.000
    C66      C        0.33050    0.13110    0.00600    1.000
    H48      H        0.32750    0.08960    0.96190    1.000
    W4       W        0.86029    0.95005    0.87699    1.000
    Cu10     Cu       0.81099    0.78035    0.87819    1.000
    Cu11     Cu       0.91056    0.88682    0.76355    1.000
    Cu12     Cu       0.78857    0.01308    0.76351    1.000
    S10      S        0.77872    0.93395    0.87617    1.000
    S11      S        0.89388    0.80232    0.87141    1.000
    S12      S        0.87201    0.03490    0.77044    1.000
    N19      N        0.97710    0.89880    0.74830    1.000
    C67      C        0.98180    0.88650    0.75700    1.000
    N20      N        0.73974    0.58200    0.33150    1.000
    N21      N        0.75149    0.62360    0.77860    1.000
    N22      N        0.81907    0.72450    0.99390    1.000
    N23      N        0.87606    0.81080    0.66540    1.000
    C68      C        0.77477    0.68130    0.81510    1.000
    C69      C        0.84190    0.74500    0.67130    1.000
    H49      H        0.83540    0.72950    0.72200    1.000
    C70      C        0.79882    0.70040    0.38730    1.000
    H50      H        0.82040    0.75140    0.37890    1.000
    C71      C        0.81515    0.69740    0.60840    1.000
    H51      H        0.79090    0.65140    0.61620    1.000
    C72      C        0.86788    0.61180    0.22310    1.000
    C73      C        0.85740    0.51710    0.24330    1.000
    H52      H        0.83870    0.47590    0.20590    1.000
    C74      C        0.82407    0.71760    0.53330    1.000
    C75      C        0.77064    0.65380    0.32480    1.000
    H53      H        0.77370    0.67480    0.27370    1.000
    C76      C        0.85036    0.65140    0.14450    1.000
    C77      C        0.73530    0.55510    0.40410    1.000
    H54      H        0.71260    0.50540    0.41050    1.000
    C78      C        0.79479    0.67050    0.46330    1.000
    C79      C        0.84610    0.59140    0.07820    1.000
    H55      H        0.85400    0.52450    0.08330    1.000
    C80      C        0.76230    0.59600    0.47080    1.000
    H56      H        0.75840    0.57310    0.52100    1.000
    C81      C        0.82230    0.78090    0.05750    1.000
    H57      H        0.81370    0.84720    0.05070    1.000
    C82      C        0.85970    0.78560    0.52720    1.000
    H58      H        0.86690    0.80280    0.47730    1.000
    C83      C        0.83750    0.74710    0.13230    1.000
    H59      H        0.83920    0.79000    0.17550    1.000
    C84      C        0.87420    0.48340    0.31800    1.000
    H60      H        0.86630    0.41900    0.33060    1.000
    C85      C        0.89540    0.66730    0.28130    1.000
    H61      H        0.90360    0.73240    0.27110    1.000
    C86      C        0.91070    0.62690    0.35390    1.000
    H62      H        0.92940    0.66610    0.39270    1.000
    C87      C        0.88500    0.82930    0.59380    1.000
    H63      H        0.91010    0.87460    0.58790    1.000
    N24      N        0.90080    0.53670    0.37280    1.000
    C88      C        0.83050    0.63110    0.00600    1.000
    H64      H        0.82750    0.58960    0.96190    1.000
    W5       W        0.36029    0.54995    0.37699    1.000
    Cu13     Cu       0.31099    0.71965    0.37819    1.000
    Cu14     Cu       0.41056    0.61318    0.26355    1.000
    Cu15     Cu       0.28857    0.48692    0.26351    1.000
    S13      S        0.27872    0.56605    0.37617    1.000
    S14      S        0.39388    0.69768    0.37141    1.000
    S15      S        0.37201    0.46510    0.27044    1.000
    N25      N        0.47710    0.60120    0.24830    1.000
    C89      C        0.48180    0.61350    0.25700    1.000
    N26      N        0.23974    0.91800    0.83150    1.000
    N27      N        0.25149    0.87640    0.27860    1.000
    N28      N        0.31907    0.77550    0.49390    1.000
    N29      N        0.37606    0.68920    0.16540    1.000
    C90      C        0.27477    0.81870    0.31510    1.000
    C91      C        0.34190    0.75500    0.17130    1.000
    H65      H        0.33540    0.77050    0.22200    1.000
    C92      C        0.29882    0.79960    0.88730    1.000
    H66      H        0.32040    0.74860    0.87890    1.000
    C93      C        0.31515    0.80260    0.10840    1.000
    H67      H        0.29090    0.84860    0.11620    1.000
    C94      C        0.36788    0.88820    0.72310    1.000
    C95      C        0.35740    0.98290    0.74330    1.000
    H68      H        0.33870    0.02410    0.70590    1.000
    C96      C        0.32407    0.78240    0.03330    1.000
    C97      C        0.27064    0.84620    0.82480    1.000
    H69      H        0.27370    0.82520    0.77370    1.000
    C98      C        0.35036    0.84860    0.64450    1.000
    C99      C        0.23530    0.94490    0.90410    1.000
    H70      H        0.21260    0.99460    0.91050    1.000
    C100     C        0.29479    0.82950    0.96330    1.000
    C101     C        0.34610    0.90860    0.57820    1.000
    H71      H        0.35400    0.97550    0.58330    1.000
    C102     C        0.26230    0.90400    0.97080    1.000
    H72      H        0.25840    0.92690    0.02100    1.000
    C103     C        0.32230    0.71910    0.55750    1.000
    H73      H        0.31370    0.65280    0.55070    1.000
    C104     C        0.35970    0.71440    0.02720    1.000
    H74      H        0.36690    0.69720    0.97730    1.000
    C105     C        0.33750    0.75290    0.63230    1.000
    H75      H        0.33920    0.71000    0.67550    1.000
    C106     C        0.37420    0.01660    0.81800    1.000
    H76      H        0.36630    0.08100    0.83060    1.000
    C107     C        0.39540    0.83270    0.78130    1.000
    H77      H        0.40360    0.76760    0.77110    1.000
    C108     C        0.41070    0.87310    0.85390    1.000
    H78      H        0.42940    0.83390    0.89270    1.000
    C109     C        0.38500    0.67070    0.09380    1.000
    H79      H        0.41010    0.62540    0.08790    1.000
    N30      N        0.40080    0.96330    0.87280    1.000
    C110     C        0.33050    0.86890    0.50600    1.000
    H80      H        0.32750    0.91040    0.46190    1.000
    W6       W        0.86029    0.04995    0.37699    1.000
    Cu16     Cu       0.81099    0.21965    0.37819    1.000
    Cu17     Cu       0.91056    0.11318    0.26355    1.000
    Cu18     Cu       0.78857    0.98692    0.26351    1.000
    S16      S        0.77872    0.06605    0.37617    1.000
    S17      S        0.89388    0.19768    0.37141    1.000
    S18      S        0.87201    0.96510    0.27044    1.000
    N31      N        0.97710    0.10120    0.24830    1.000
    C111     C        0.98180    0.11350    0.25700    1.000
    N32      N        0.73974    0.41800    0.83150    1.000
    N33      N        0.75149    0.37640    0.27860    1.000
    N34      N        0.81907    0.27550    0.49390    1.000
    N35      N        0.87606    0.18920    0.16540    1.000
    C112     C        0.77477    0.31870    0.31510    1.000
    C113     C        0.84190    0.25500    0.17130    1.000
    H81      H        0.83540    0.27050    0.22200    1.000
    C114     C        0.79882    0.29960    0.88730    1.000
    H82      H        0.82040    0.24860    0.87890    1.000
    C115     C        0.81515    0.30260    0.10840    1.000
    H83      H        0.79090    0.34860    0.11620    1.000
    C116     C        0.86788    0.38820    0.72310    1.000
    C117     C        0.85740    0.48290    0.74330    1.000
    H84      H        0.83870    0.52410    0.70590    1.000
    C118     C        0.82407    0.28240    0.03330    1.000
    C119     C        0.77064    0.34620    0.82480    1.000
    H85      H        0.77370    0.32520    0.77370    1.000
    C120     C        0.85036    0.34860    0.64450    1.000
    C121     C        0.73530    0.44490    0.90410    1.000
    H86      H        0.71260    0.49460    0.91050    1.000
    C122     C        0.79479    0.32950    0.96330    1.000
    C123     C        0.84610    0.40860    0.57820    1.000
    H87      H        0.85400    0.47550    0.58330    1.000
    C124     C        0.76230    0.40400    0.97080    1.000
    H88      H        0.75840    0.42690    0.02100    1.000
    C125     C        0.82230    0.21910    0.55750    1.000
    H89      H        0.81370    0.15280    0.55070    1.000
    C126     C        0.85970    0.21440    0.02720    1.000
    H90      H        0.86690    0.19720    0.97730    1.000
    C127     C        0.83750    0.25290    0.63230    1.000
    H91      H        0.83920    0.21000    0.67550    1.000
    C128     C        0.87420    0.51660    0.81800    1.000
    H92      H        0.86630    0.58100    0.83060    1.000
    C129     C        0.89540    0.33270    0.78130    1.000
    H93      H        0.90360    0.26760    0.77110    1.000
    C130     C        0.91070    0.37310    0.85390    1.000
    H94      H        0.92940    0.33390    0.89270    1.000
    C131     C        0.88500    0.17070    0.09380    1.000
    H95      H        0.91010    0.12540    0.08790    1.000
    N36      N        0.90080    0.46330    0.87280    1.000
    C132     C        0.83050    0.36890    0.50600    1.000
    H96      H        0.82750    0.41040    0.46190    1.000
    W7       W        0.63971    0.54995    0.12301    1.000
    Cu19     Cu       0.68901    0.71965    0.12181    1.000
    Cu20     Cu       0.58944    0.61318    0.23645    1.000
    Cu21     Cu       0.71143    0.48692    0.23649    1.000
    S19      S        0.72128    0.56605    0.12383    1.000
    S20      S        0.60612    0.69768    0.12859    1.000
    S21      S        0.62799    0.46510    0.22956    1.000
    N37      N        0.52290    0.60120    0.25170    1.000
    C133     C        0.51820    0.61350    0.24300    1.000
    N38      N        0.76026    0.91800    0.66850    1.000
    N39      N        0.74851    0.87640    0.22140    1.000
    N40      N        0.68093    0.77550    0.00610    1.000
    N41      N        0.62394    0.68920    0.33460    1.000
    C134     C        0.72523    0.81870    0.18490    1.000
    C135     C        0.65810    0.75500    0.32870    1.000
    H97      H        0.66460    0.77050    0.27800    1.000
    C136     C        0.70118    0.79960    0.61270    1.000
    H98      H        0.67960    0.74860    0.62110    1.000
    C137     C        0.68485    0.80260    0.39160    1.000
    H99      H        0.70910    0.84860    0.38380    1.000
    C138     C        0.63212    0.88820    0.77690    1.000
    C139     C        0.64260    0.98290    0.75670    1.000
    H100     H        0.66130    0.02410    0.79410    1.000
    C140     C        0.67593    0.78240    0.46670    1.000
    C141     C        0.72936    0.84620    0.67520    1.000
    H101     H        0.72630    0.82520    0.72630    1.000
    C142     C        0.64964    0.84860    0.85550    1.000
    C143     C        0.76470    0.94490    0.59590    1.000
    H102     H        0.78740    0.99460    0.58950    1.000
    C144     C        0.70521    0.82950    0.53670    1.000
    C145     C        0.65390    0.90860    0.92180    1.000
    H103     H        0.64600    0.97550    0.91670    1.000
    C146     C        0.73770    0.90400    0.52920    1.000
    H104     H        0.74160    0.92690    0.47900    1.000
    C147     C        0.67770    0.71910    0.94250    1.000
    H105     H        0.68630    0.65280    0.94930    1.000
    C148     C        0.64030    0.71440    0.47280    1.000
    H106     H        0.63310    0.69720    0.52270    1.000
    C149     C        0.66250    0.75290    0.86770    1.000
    H107     H        0.66080    0.71000    0.82450    1.000
    C150     C        0.62580    0.01660    0.68200    1.000
    H108     H        0.63370    0.08100    0.66940    1.000
    C151     C        0.60460    0.83270    0.71870    1.000
    H109     H        0.59640    0.76760    0.72890    1.000
    C152     C        0.58930    0.87310    0.64610    1.000
    H110     H        0.57060    0.83390    0.60730    1.000
    C153     C        0.61500    0.67070    0.40620    1.000
    H111     H        0.58990    0.62540    0.41210    1.000
    N42      N        0.59920    0.96330    0.62720    1.000
    C154     C        0.66950    0.86890    0.99400    1.000
    H112     H        0.67250    0.91040    0.03810    1.000
    W8       W        0.13971    0.04995    0.12301    1.000
    Cu22     Cu       0.18901    0.21965    0.12181    1.000
    Cu23     Cu       0.08944    0.11318    0.23645    1.000
    Cu24     Cu       0.21143    0.98692    0.23649    1.000
    S22      S        0.22128    0.06605    0.12383    1.000
    S23      S        0.10612    0.19768    0.12859    1.000
    S24      S        0.12799    0.96510    0.22956    1.000
    N43      N        0.02290    0.10120    0.25170    1.000
    C155     C        0.01820    0.11350    0.24300    1.000
    N44      N        0.26026    0.41800    0.66850    1.000
    N45      N        0.24851    0.37640    0.22140    1.000
    N46      N        0.18093    0.27550    0.00610    1.000
    N47      N        0.12394    0.18920    0.33460    1.000
    C156     C        0.22523    0.31870    0.18490    1.000
    C157     C        0.15810    0.25500    0.32870    1.000
    H113     H        0.16460    0.27050    0.27800    1.000
    C158     C        0.20118    0.29960    0.61270    1.000
    H114     H        0.17960    0.24860    0.62110    1.000
    C159     C        0.18485    0.30260    0.39160    1.000
    H115     H        0.20910    0.34860    0.38380    1.000
    C160     C        0.13212    0.38820    0.77690    1.000
    C161     C        0.14260    0.48290    0.75670    1.000
    H116     H        0.16130    0.52410    0.79410    1.000
    C162     C        0.17593    0.28240    0.46670    1.000
    C163     C        0.22936    0.34620    0.67520    1.000
    H117     H        0.22630    0.32520    0.72630    1.000
    C164     C        0.14964    0.34860    0.85550    1.000
    C165     C        0.26470    0.44490    0.59590    1.000
    H118     H        0.28740    0.49460    0.58950    1.000
    C166     C        0.20521    0.32950    0.53670    1.000
    C167     C        0.15390    0.40860    0.92180    1.000
    H119     H        0.14600    0.47550    0.91670    1.000
    C168     C        0.23770    0.40400    0.52920    1.000
    H120     H        0.24160    0.42690    0.47900    1.000
    C169     C        0.17770    0.21910    0.94250    1.000
    H121     H        0.18630    0.15280    0.94930    1.000
    C170     C        0.14030    0.21440    0.47280    1.000
    H122     H        0.13310    0.19720    0.52270    1.000
    C171     C        0.16250    0.25290    0.86770    1.000
    H123     H        0.16080    0.21000    0.82450    1.000
    C172     C        0.12580    0.51660    0.68200    1.000
    H124     H        0.13370    0.58100    0.66940    1.000
    C173     C        0.10460    0.33270    0.71870    1.000
    H125     H        0.09640    0.26760    0.72890    1.000
    C174     C        0.08930    0.37310    0.64610    1.000
    H126     H        0.07060    0.33390    0.60730    1.000
    C175     C        0.11500    0.17070    0.40620    1.000
    H127     H        0.08990    0.12540    0.41210    1.000
    N48      N        0.09920    0.46330    0.62720    1.000
    C176     C        0.16950    0.36890    0.99400    1.000
    H128     H        0.17250    0.41040    0.03810    1.000
