# CIF file generated by openbabel 3.1.0, see https://openbabel.org
data_I
_chemical_name_common 'SUNJIV_clean'
_cell_length_a 9.8283
_cell_length_b 10.4362
_cell_length_c 11.076
_cell_angle_alpha 76.894
_cell_angle_beta 76.296
_cell_angle_gamma 65.999
_space_group_name_H-M_alt 'P 1'
_space_group_name_Hall 'P 1'
loop_
    _symmetry_equiv_pos_as_xyz
    x,y,z
loop_
    _atom_site_label
    _atom_site_type_symbol
    _atom_site_fract_x
    _atom_site_fract_y
    _atom_site_fract_z
    _atom_site_occupancy
    Dy1      Dy       0.94493    0.22808    0.82291    1.000
    Dy2      Dy       0.05507    0.77192    0.17709    1.000
    H1       H        0.30780    0.92220    0.50630    1.000
    H2       H        0.45520    0.18490    0.60490    1.000
    H3       H        0.43570    0.41490    0.70900    1.000
    H4       H        0.74000    0.50230    0.42380    1.000
    H5       H        0.60030    0.11820    0.82100    1.000
    H6       H        0.64940    0.85960    0.15010    1.000
    H7       H        0.69220    0.07780    0.49370    1.000
    H8       H        0.54480    0.81510    0.39510    1.000
    H9       H        0.56430    0.58510    0.29100    1.000
    H10      H        0.26000    0.49770    0.57620    1.000
    H11      H        0.39970    0.88180    0.17900    1.000
    H12      H        0.35060    0.14040    0.84990    1.000
    C1       C        0.35690    0.06510    0.56740    1.000
    C2       C        0.38460    0.95350    0.50390    1.000
    C3       C        0.47310    0.11060    0.56270    1.000
    C4       C        0.20540    0.13160    0.64560    1.000
    C5       C        0.60800    0.44860    0.57930    1.000
    C6       C        0.46150    0.44870    0.62510    1.000
    C7       C        0.64390    0.50100    0.45440    1.000
    C8       C        0.72360    0.38930    0.66510    1.000
    C9       C        0.64930    0.98610    0.98300    1.000
    C10      C        0.56000    0.07080    0.89270    1.000
    C11      C        0.58950    0.91590    0.08980    1.000
    C12      C        0.80960    0.97680    0.96690    1.000
    C13      C        0.64310    0.93490    0.43260    1.000
    C14      C        0.61540    0.04650    0.49610    1.000
    C15      C        0.52690    0.88940    0.43730    1.000
    C16      C        0.79460    0.86840    0.35440    1.000
    C17      C        0.39200    0.55140    0.42070    1.000
    C18      C        0.53850    0.55130    0.37490    1.000
    C19      C        0.35610    0.49900    0.54560    1.000
    C20      C        0.27640    0.61070    0.33490    1.000
    C21      C        0.35070    0.01390    0.01700    1.000
    C22      C        0.44000    0.92920    0.10730    1.000
    C23      C        0.41050    0.08410    0.91020    1.000
    C24      C        0.19040    0.02320    0.03310    1.000
    O1       O        0.17234    0.24758    0.68167    1.000
    O2       O        0.11670    0.06470    0.67817    1.000
    O3       O        0.68510    0.35000    0.77960    1.000
    O4       O        0.85800    0.37680    0.62319    1.000
    O5       O        0.85732    0.04738    0.87230    1.000
    O6       O        0.88400    0.89770    0.05058    1.000
    O7       O        0.82766    0.75242    0.31833    1.000
    O8       O        0.88330    0.93530    0.32183    1.000
    O9       O        0.31490    0.65000    0.22040    1.000
    O10      O        0.14200    0.62320    0.37681    1.000
    O11      O        0.14268    0.95262    0.12770    1.000
    O12      O        0.11600    0.10230    0.94942    1.000
