# CIF file generated by openbabel 3.1.0, see https://openbabel.org
data_I
_chemical_name_common 'image0'
_cell_length_a 9.076
_cell_length_b 9.867
_cell_length_c 16.303
_cell_angle_alpha 103.349
_cell_angle_beta 104.11
_cell_angle_gamma 98.526
_space_group_name_H-M_alt 'P 1'
_space_group_name_Hall 'P 1'
loop_
    _symmetry_equiv_pos_as_xyz
    x,y,z
loop_
    _atom_site_label
    _atom_site_type_symbol
    _atom_site_fract_x
    _atom_site_fract_y
    _atom_site_fract_z
    _atom_site_occupancy
    La1      La       0.69213    0.45144    0.59811    1.000
    La2      La       0.84842    0.42670    0.86433    1.000
    O1       O        0.69810    0.21530    0.74280    1.000
    O2       O        0.53320    0.25800    0.63250    1.000
    O3       O        0.76210    0.72530    0.64299    1.000
    O4       O        0.55950    0.64200    0.52672    1.000
    O5       O        0.75840    0.24400    0.94335    1.000
    O6       O        0.58330    0.35710    0.88980    1.000
    O7       O        0.10820    0.42690    0.97591    1.000
    O8       O        0.04460    0.26080    0.85126    1.000
    O9       O        0.68180    0.55210    0.77780    1.000
    O10      O        0.48600    0.54710    0.66773    1.000
    O11      O        0.92420    0.44450    0.72570    1.000
    O12      O        0.00210    0.54170    0.63185    1.000
    C1       C        0.57180    0.18370    0.68330    1.000
    C2       C        0.45830    0.04840    0.67220    1.000
    H1       H        0.37740    0.02750    0.61690    1.000
    H2       H        0.40950    0.06310    0.71930    1.000
    C3       C        0.53340    0.92090    0.67280    1.000
    H3       H        0.60930    0.93860    0.72960    1.000
    H4       H        0.45430    0.83740    0.66490    1.000
    C4       C        0.61300    0.89140    0.60100    1.000
    H5       H        0.54590    0.89730    0.54630    1.000
    H6       H        0.70870    0.96250    0.61680    1.000
    C5       C        0.64860    0.74550    0.58880    1.000
    C6       C        0.61770    0.25720    0.91980    1.000
    C7       C        0.49250    0.14360    0.92560    1.000
    H7       H        0.51250    0.14170    0.98650    1.000
    H8       H        0.50050    0.05170    0.89170    1.000
    C8       C        0.32570    0.16240    0.89290    1.000
    H9       H        0.31140    0.18440    0.83690    1.000
    H10      H        0.25350    0.07340    0.88350    1.000
    C9       C        0.28890    0.28000    0.95750    1.000
    H11      H        0.28740    0.24970    0.00990    1.000
    H12      H        0.37260    0.36360    0.97470    1.000
    C10      C        0.13850    0.32220    0.92490    1.000
    C11      C        0.55000    0.57870    0.74890    1.000
    C12      C        0.47420    0.65300    0.81330    1.000
    H13      H        0.53390    0.75010    0.84040    1.000
    H14      H        0.47950    0.60560    0.85950    1.000
    C13      C        0.30510    0.65790    0.77450    1.000
    H15      H        0.29530    0.69260    0.72280    1.000
    H16      H        0.27250    0.72330    0.81730    1.000
    C14      C        0.19980    0.50920    0.74900    1.000
    H17      H        0.24220    0.44200    0.71290    1.000
    H18      H        0.20110    0.48040    0.80210    1.000
    C15      C        0.03420    0.50100    0.69980    1.000
    La3      La       0.30787    0.54856    0.40189    1.000
    La4      La       0.15158    0.57330    0.13567    1.000
    O13      O        0.30190    0.78470    0.25720    1.000
    O14      O        0.46680    0.74200    0.36750    1.000
    O15      O        0.23790    0.27470    0.35701    1.000
    O16      O        0.44050    0.35800    0.47328    1.000
    O17      O        0.24160    0.75600    0.05665    1.000
    O18      O        0.41670    0.64290    0.11020    1.000
    O19      O        0.89180    0.57310    0.02409    1.000
    O20      O        0.95540    0.73920    0.14874    1.000
    O21      O        0.31820    0.44790    0.22220    1.000
    O22      O        0.51400    0.45290    0.33227    1.000
    O23      O        0.07580    0.55550    0.27430    1.000
    O24      O        0.99790    0.45830    0.36815    1.000
    C16      C        0.42820    0.81630    0.31670    1.000
    C17      C        0.54170    0.95160    0.32780    1.000
    H19      H        0.62260    0.97250    0.38310    1.000
    H20      H        0.59050    0.93690    0.28070    1.000
    C18      C        0.46660    0.07910    0.32720    1.000
    H21      H        0.39070    0.06140    0.27040    1.000
    H22      H        0.54570    0.16260    0.33510    1.000
    C19      C        0.38700    0.10860    0.39900    1.000
    H23      H        0.45410    0.10270    0.45370    1.000
    H24      H        0.29130    0.03750    0.38320    1.000
    C20      C        0.35140    0.25450    0.41120    1.000
    C21      C        0.38230    0.74280    0.08020    1.000
    C22      C        0.50750    0.85640    0.07440    1.000
    H25      H        0.48750    0.85830    0.01350    1.000
    H26      H        0.49950    0.94830    0.10830    1.000
    C23      C        0.67430    0.83760    0.10710    1.000
    H27      H        0.68860    0.81560    0.16310    1.000
    H28      H        0.74650    0.92660    0.11650    1.000
    C24      C        0.71110    0.72000    0.04250    1.000
    H29      H        0.71260    0.75030    0.99010    1.000
    H30      H        0.62740    0.63640    0.02530    1.000
    C25      C        0.86150    0.67780    0.07510    1.000
    C26      C        0.45000    0.42130    0.25110    1.000
    C27      C        0.52580    0.34700    0.18670    1.000
    H31      H        0.46610    0.24990    0.15960    1.000
    H32      H        0.52050    0.39440    0.14050    1.000
    C28      C        0.69490    0.34210    0.22550    1.000
    H33      H        0.70470    0.30740    0.27720    1.000
    H34      H        0.72750    0.27670    0.18270    1.000
    C29      C        0.80020    0.49080    0.25100    1.000
    H35      H        0.75780    0.55800    0.28710    1.000
    H36      H        0.79890    0.51960    0.19790    1.000
    C30      C        0.96580    0.49900    0.30020    1.000
