# CIF file generated by openbabel 3.1.0, see https://openbabel.org
data_I
_chemical_name_common 'image0'
_cell_length_a 10.586
_cell_length_b 28.043
_cell_length_c 17.448
_cell_angle_alpha 90
_cell_angle_beta 92.08
_cell_angle_gamma 90
_space_group_name_H-M_alt 'P 1'
_space_group_name_Hall 'P 1'
loop_
    _symmetry_equiv_pos_as_xyz
    x,y,z
loop_
    _atom_site_label
    _atom_site_type_symbol
    _atom_site_fract_x
    _atom_site_fract_y
    _atom_site_fract_z
    _atom_site_occupancy
    O1       O        0.14900    0.38654    0.30560    1.000
    N1       N        0.07890    0.45725    0.16890    1.000
    C1       C        0.11120    0.35087    0.34390    1.000
    C2       C        0.06250    0.44640    0.09550    1.000
    C3       C        0.16220    0.49140    0.18670    1.000
    O2       O        0.99700    0.34174    0.34850    1.000
    C4       C        0.21060    0.32429    0.39100    1.000
    H1       H        0.00060    0.42410    0.08180    1.000
    C5       C        0.13210    0.46620    0.03790    1.000
    C6       C        0.23490    0.51370    0.13300    1.000
    H2       H        0.17210    0.50070    0.23770    1.000
    Zn1      Zn       0.86147    0.28710    0.37077    1.000
    C7       C        0.23240    0.33960    0.46570    1.000
    C8       C        0.28100    0.28610    0.36270    1.000
    H3       H        0.11840    0.45690    0.98720    1.000
    C9       C        0.22230    0.50030    0.05720    1.000
    H4       H        0.29170    0.53750    0.14800    1.000
    O3       O        0.17310    0.28707    0.24250    1.000
    O4       O        0.49590    0.26435    0.60710    1.000
    O5       O        0.56180    0.22439    0.50820    1.000
    N2       N        0.73160    0.66010    0.89990    1.000
    C10      C        0.48890    0.25550    0.53720    1.000
    H5       H        0.18590    0.36500    0.48430    1.000
    C11      C        0.32310    0.31750    0.51320    1.000
    C12      C        0.37260    0.26510    0.41070    1.000
    C13      C        0.25930    0.26700    0.28300    1.000
    C14      C        0.30560    0.51970    0.00010    1.000
    C15      C        0.69040    0.65310    0.97040    1.000
    C16      C        0.68050    0.63290    0.84390    1.000
    C17      C        0.39340    0.28030    0.48580    1.000
    H6       H        0.33640    0.32790    0.56350    1.000
    H7       H        0.42110    0.24020    0.39210    1.000
    O6       O        0.31990    0.23240    0.26290    1.000
    N3       N        0.30830    0.50370    0.92780    1.000
    N4       N        0.38990    0.55427    0.01310    1.000
    C18      C        0.59900    0.62090    0.98720    1.000
    H8       H        0.72600    0.67120    0.01020    1.000
    C19      C        0.58830    0.60000    0.85660    1.000
    H9       H        0.70870    0.63660    0.79430    1.000
    H10      H        0.26140    0.48160    0.90790    1.000
    N5       N        0.39930    0.52900    0.89110    1.000
    C20      C        0.44470    0.55880    0.94490    1.000
    C21      C        0.54490    0.59330    0.92950    1.000
    H11      H        0.57340    0.61760    0.03730    1.000
    H12      H        0.55480    0.58200    0.81600    1.000
    O7       O        0.64900    0.88654    0.30560    1.000
    N6       N        0.57890    0.95725    0.16890    1.000
    C22      C        0.61120    0.85087    0.34390    1.000
    C23      C        0.56250    0.94640    0.09550    1.000
    C24      C        0.66220    0.99140    0.18670    1.000
    O8       O        0.49700    0.84174    0.34850    1.000
    C25      C        0.71060    0.82429    0.39100    1.000
    H13      H        0.50060    0.92410    0.08180    1.000
    C26      C        0.63210    0.96620    0.03790    1.000
    C27      C        0.73490    0.01370    0.13300    1.000
    H14      H        0.67210    0.00070    0.23770    1.000
    Zn2      Zn       0.36147    0.78710    0.37077    1.000
    C28      C        0.73240    0.83960    0.46570    1.000
    C29      C        0.78100    0.78610    0.36270    1.000
    H15      H        0.61840    0.95690    0.98720    1.000
    C30      C        0.72230    0.00030    0.05720    1.000
    H16      H        0.79170    0.03750    0.14800    1.000
    O9       O        0.67310    0.78707    0.24250    1.000
    O10      O        0.99590    0.76435    0.60710    1.000
    O11      O        0.06180    0.72439    0.50820    1.000
    N7       N        0.23160    0.16010    0.89990    1.000
    C31      C        0.98890    0.75550    0.53720    1.000
    H17      H        0.68590    0.86500    0.48430    1.000
    C32      C        0.82310    0.81750    0.51320    1.000
    C33      C        0.87260    0.76510    0.41070    1.000
    C34      C        0.75930    0.76700    0.28300    1.000
    C35      C        0.80560    0.01970    0.00010    1.000
    C36      C        0.19040    0.15310    0.97040    1.000
    C37      C        0.18050    0.13290    0.84390    1.000
    C38      C        0.89340    0.78030    0.48580    1.000
    H18      H        0.83640    0.82790    0.56350    1.000
    H19      H        0.92110    0.74020    0.39210    1.000
    O12      O        0.81990    0.73240    0.26290    1.000
    N8       N        0.80830    0.00370    0.92780    1.000
    N9       N        0.88990    0.05427    0.01310    1.000
    C39      C        0.09900    0.12090    0.98720    1.000
    H20      H        0.22600    0.17120    0.01020    1.000
    C40      C        0.08830    0.10000    0.85660    1.000
    H21      H        0.20870    0.13660    0.79430    1.000
    H22      H        0.76140    0.98160    0.90790    1.000
    N10      N        0.89930    0.02900    0.89110    1.000
    C41      C        0.94470    0.05880    0.94490    1.000
    C42      C        0.04490    0.09330    0.92950    1.000
    H23      H        0.07340    0.11760    0.03730    1.000
    H24      H        0.05480    0.08200    0.81600    1.000
    O13      O        0.85100    0.38654    0.19440    1.000
    N11      N        0.92110    0.45725    0.33110    1.000
    C43      C        0.88880    0.35087    0.15610    1.000
    C44      C        0.93750    0.44640    0.40450    1.000
    C45      C        0.83780    0.49140    0.31330    1.000
    O14      O        0.00300    0.34174    0.15150    1.000
    C46      C        0.78940    0.32429    0.10900    1.000
    H25      H        0.99940    0.42410    0.41820    1.000
    C47      C        0.86790    0.46620    0.46210    1.000
    C48      C        0.76510    0.51370    0.36700    1.000
    H26      H        0.82790    0.50070    0.26230    1.000
    Zn3      Zn       0.13853    0.28710    0.12923    1.000
    C49      C        0.76760    0.33960    0.03430    1.000
    C50      C        0.71900    0.28610    0.13730    1.000
    H27      H        0.88160    0.45690    0.51280    1.000
    C51      C        0.77770    0.50030    0.44280    1.000
    H28      H        0.70830    0.53750    0.35200    1.000
    O15      O        0.82690    0.28707    0.25750    1.000
    O16      O        0.50410    0.26435    0.89290    1.000
    O17      O        0.43820    0.22439    0.99180    1.000
    N12      N        0.26840    0.66010    0.60010    1.000
    C52      C        0.51110    0.25550    0.96280    1.000
    H29      H        0.81410    0.36500    0.01570    1.000
    C53      C        0.67690    0.31750    0.98680    1.000
    C54      C        0.62740    0.26510    0.08930    1.000
    C55      C        0.74070    0.26700    0.21700    1.000
    C56      C        0.69440    0.51970    0.49990    1.000
    C57      C        0.30960    0.65310    0.52960    1.000
    C58      C        0.31950    0.63290    0.65610    1.000
    C59      C        0.60660    0.28030    0.01420    1.000
    H30      H        0.66360    0.32790    0.93650    1.000
    H31      H        0.57890    0.24020    0.10790    1.000
    O18      O        0.68010    0.23240    0.23710    1.000
    N13      N        0.69170    0.50370    0.57220    1.000
    N14      N        0.61010    0.55427    0.48690    1.000
    C60      C        0.40100    0.62090    0.51280    1.000
    H32      H        0.27400    0.67120    0.48980    1.000
    C61      C        0.41170    0.60000    0.64340    1.000
    H33      H        0.29130    0.63660    0.70570    1.000
    H34      H        0.73860    0.48160    0.59210    1.000
    N15      N        0.60070    0.52900    0.60890    1.000
    C62      C        0.55530    0.55880    0.55510    1.000
    C63      C        0.45510    0.59330    0.57050    1.000
    H35      H        0.42660    0.61760    0.46270    1.000
    H36      H        0.44520    0.58200    0.68400    1.000
    O19      O        0.35100    0.88654    0.19440    1.000
    N16      N        0.42110    0.95725    0.33110    1.000
    C64      C        0.38880    0.85087    0.15610    1.000
    C65      C        0.43750    0.94640    0.40450    1.000
    C66      C        0.33780    0.99140    0.31330    1.000
    O20      O        0.50300    0.84174    0.15150    1.000
    C67      C        0.28940    0.82429    0.10900    1.000
    H37      H        0.49940    0.92410    0.41820    1.000
    C68      C        0.36790    0.96620    0.46210    1.000
    C69      C        0.26510    0.01370    0.36700    1.000
    H38      H        0.32790    0.00070    0.26230    1.000
    Zn4      Zn       0.63853    0.78710    0.12923    1.000
    C70      C        0.26760    0.83960    0.03430    1.000
    C71      C        0.21900    0.78610    0.13730    1.000
    H39      H        0.38160    0.95690    0.51280    1.000
    C72      C        0.27770    0.00030    0.44280    1.000
    H40      H        0.20830    0.03750    0.35200    1.000
    O21      O        0.32690    0.78707    0.25750    1.000
    O22      O        0.00410    0.76435    0.89290    1.000
    O23      O        0.93820    0.72439    0.99180    1.000
    N17      N        0.76840    0.16010    0.60010    1.000
    C73      C        0.01110    0.75550    0.96280    1.000
    H41      H        0.31410    0.86500    0.01570    1.000
    C74      C        0.17690    0.81750    0.98680    1.000
    C75      C        0.12740    0.76510    0.08930    1.000
    C76      C        0.24070    0.76700    0.21700    1.000
    C77      C        0.19440    0.01970    0.49990    1.000
    C78      C        0.80960    0.15310    0.52960    1.000
    C79      C        0.81950    0.13290    0.65610    1.000
    C80      C        0.10660    0.78030    0.01420    1.000
    H42      H        0.16360    0.82790    0.93650    1.000
    H43      H        0.07890    0.74020    0.10790    1.000
    O24      O        0.18010    0.73240    0.23710    1.000
    N18      N        0.19170    0.00370    0.57220    1.000
    N19      N        0.11010    0.05427    0.48690    1.000
    C81      C        0.90100    0.12090    0.51280    1.000
    H44      H        0.77400    0.17120    0.48980    1.000
    C82      C        0.91170    0.10000    0.64340    1.000
    H45      H        0.79130    0.13660    0.70570    1.000
    H46      H        0.23860    0.98160    0.59210    1.000
    N20      N        0.10070    0.02900    0.60890    1.000
    C83      C        0.05530    0.05880    0.55510    1.000
    C84      C        0.95510    0.09330    0.57050    1.000
    H47      H        0.92660    0.11760    0.46270    1.000
    H48      H        0.94520    0.08200    0.68400    1.000
    O25      O        0.85100    0.61346    0.69440    1.000
    N21      N        0.92110    0.54275    0.83110    1.000
    C85      C        0.88880    0.64913    0.65610    1.000
    C86      C        0.93750    0.55360    0.90450    1.000
    C87      C        0.83780    0.50860    0.81330    1.000
    O26      O        0.00300    0.65826    0.65150    1.000
    C88      C        0.78940    0.67571    0.60900    1.000
    H49      H        0.99940    0.57590    0.91820    1.000
    C89      C        0.86790    0.53380    0.96210    1.000
    C90      C        0.76510    0.48630    0.86700    1.000
    H50      H        0.82790    0.49930    0.76230    1.000
    Zn5      Zn       0.13853    0.71290    0.62923    1.000
    C91      C        0.76760    0.66040    0.53430    1.000
    C92      C        0.71900    0.71390    0.63730    1.000
    H51      H        0.88160    0.54310    0.01280    1.000
    C93      C        0.77770    0.49970    0.94280    1.000
    H52      H        0.70830    0.46250    0.85200    1.000
    O27      O        0.82690    0.71293    0.75750    1.000
    O28      O        0.50410    0.73565    0.39290    1.000
    O29      O        0.43820    0.77561    0.49180    1.000
    N22      N        0.26840    0.33990    0.10010    1.000
    C94      C        0.51110    0.74450    0.46280    1.000
    H53      H        0.81410    0.63500    0.51570    1.000
    C95      C        0.67690    0.68250    0.48680    1.000
    C96      C        0.62740    0.73490    0.58930    1.000
    C97      C        0.74070    0.73300    0.71700    1.000
    C98      C        0.69440    0.48030    0.99990    1.000
    C99      C        0.30960    0.34690    0.02960    1.000
    C100     C        0.31950    0.36710    0.15610    1.000
    C101     C        0.60660    0.71970    0.51420    1.000
    H54      H        0.66360    0.67210    0.43650    1.000
    H55      H        0.57890    0.75980    0.60790    1.000
    O30      O        0.68010    0.76760    0.73710    1.000
    N23      N        0.69170    0.49630    0.07220    1.000
    N24      N        0.61010    0.44573    0.98690    1.000
    C102     C        0.40100    0.37910    0.01280    1.000
    H56      H        0.27400    0.32880    0.98980    1.000
    C103     C        0.41170    0.40000    0.14340    1.000
    H57      H        0.29130    0.36340    0.20570    1.000
    H58      H        0.73860    0.51840    0.09210    1.000
    N25      N        0.60070    0.47100    0.10890    1.000
    C104     C        0.55530    0.44120    0.05510    1.000
    C105     C        0.45510    0.40670    0.07050    1.000
    H59      H        0.42660    0.38240    0.96270    1.000
    H60      H        0.44520    0.41800    0.18400    1.000
    O31      O        0.35100    0.11346    0.69440    1.000
    N26      N        0.42110    0.04275    0.83110    1.000
    C106     C        0.38880    0.14913    0.65610    1.000
    C107     C        0.43750    0.05360    0.90450    1.000
    C108     C        0.33780    0.00860    0.81330    1.000
    O32      O        0.50300    0.15826    0.65150    1.000
    C109     C        0.28940    0.17571    0.60900    1.000
    H61      H        0.49940    0.07590    0.91820    1.000
    C110     C        0.36790    0.03380    0.96210    1.000
    C111     C        0.26510    0.98630    0.86700    1.000
    H62      H        0.32790    0.99930    0.76230    1.000
    Zn6      Zn       0.63853    0.21290    0.62923    1.000
    C112     C        0.26760    0.16040    0.53430    1.000
    C113     C        0.21900    0.21390    0.63730    1.000
    H63      H        0.38160    0.04310    0.01280    1.000
    C114     C        0.27770    0.99970    0.94280    1.000
    H64      H        0.20830    0.96250    0.85200    1.000
    O33      O        0.32690    0.21293    0.75750    1.000
    O34      O        0.00410    0.23565    0.39290    1.000
    O35      O        0.93820    0.27561    0.49180    1.000
    N27      N        0.76840    0.83990    0.10010    1.000
    C115     C        0.01110    0.24450    0.46280    1.000
    H65      H        0.31410    0.13500    0.51570    1.000
    C116     C        0.17690    0.18250    0.48680    1.000
    C117     C        0.12740    0.23490    0.58930    1.000
    C118     C        0.24070    0.23300    0.71700    1.000
    C119     C        0.19440    0.98030    0.99990    1.000
    C120     C        0.80960    0.84690    0.02960    1.000
    C121     C        0.81950    0.86710    0.15610    1.000
    C122     C        0.10660    0.21970    0.51420    1.000
    H66      H        0.16360    0.17210    0.43650    1.000
    H67      H        0.07890    0.25980    0.60790    1.000
    O36      O        0.18010    0.26760    0.73710    1.000
    N28      N        0.19170    0.99630    0.07220    1.000
    N29      N        0.11010    0.94573    0.98690    1.000
    C123     C        0.90100    0.87910    0.01280    1.000
    H68      H        0.77400    0.82880    0.98980    1.000
    C124     C        0.91170    0.90000    0.14340    1.000
    H69      H        0.79130    0.86340    0.20570    1.000
    H70      H        0.23860    0.01840    0.09210    1.000
    N30      N        0.10070    0.97100    0.10890    1.000
    C125     C        0.05530    0.94120    0.05510    1.000
    C126     C        0.95510    0.90670    0.07050    1.000
    H71      H        0.92660    0.88240    0.96270    1.000
    H72      H        0.94520    0.91800    0.18400    1.000
    O37      O        0.14900    0.61346    0.80560    1.000
    N31      N        0.07890    0.54275    0.66890    1.000
    C127     C        0.11120    0.64913    0.84390    1.000
    C128     C        0.06250    0.55360    0.59550    1.000
    C129     C        0.16220    0.50860    0.68670    1.000
    O38      O        0.99700    0.65826    0.84850    1.000
    C130     C        0.21060    0.67571    0.89100    1.000
    H73      H        0.00060    0.57590    0.58180    1.000
    C131     C        0.13210    0.53380    0.53790    1.000
    C132     C        0.23490    0.48630    0.63300    1.000
    H74      H        0.17210    0.49930    0.73770    1.000
    Zn7      Zn       0.86147    0.71290    0.87077    1.000
    C133     C        0.23240    0.66040    0.96570    1.000
    C134     C        0.28100    0.71390    0.86270    1.000
    H75      H        0.11840    0.54310    0.48720    1.000
    C135     C        0.22230    0.49970    0.55720    1.000
    H76      H        0.29170    0.46250    0.64800    1.000
    O39      O        0.17310    0.71293    0.74250    1.000
    O40      O        0.49590    0.73565    0.10710    1.000
    O41      O        0.56180    0.77561    0.00820    1.000
    N32      N        0.73160    0.33990    0.39990    1.000
    C136     C        0.48890    0.74450    0.03720    1.000
    H77      H        0.18590    0.63500    0.98430    1.000
    C137     C        0.32310    0.68250    0.01320    1.000
    C138     C        0.37260    0.73490    0.91070    1.000
    C139     C        0.25930    0.73300    0.78300    1.000
    C140     C        0.30560    0.48030    0.50010    1.000
    C141     C        0.69040    0.34690    0.47040    1.000
    C142     C        0.68050    0.36710    0.34390    1.000
    C143     C        0.39340    0.71970    0.98580    1.000
    H78      H        0.33640    0.67210    0.06350    1.000
    H79      H        0.42110    0.75980    0.89210    1.000
    O42      O        0.31990    0.76760    0.76290    1.000
    N33      N        0.30830    0.49630    0.42780    1.000
    N34      N        0.38990    0.44573    0.51310    1.000
    C144     C        0.59900    0.37910    0.48720    1.000
    H80      H        0.72600    0.32880    0.51020    1.000
    C145     C        0.58830    0.40000    0.35660    1.000
    H81      H        0.70870    0.36340    0.29430    1.000
    H82      H        0.26140    0.51840    0.40790    1.000
    N35      N        0.39930    0.47100    0.39110    1.000
    C146     C        0.44470    0.44120    0.44490    1.000
    C147     C        0.54490    0.40670    0.42950    1.000
    H83      H        0.57340    0.38240    0.53730    1.000
    H84      H        0.55480    0.41800    0.31600    1.000
    O43      O        0.64900    0.11346    0.80560    1.000
    N36      N        0.57890    0.04275    0.66890    1.000
    C148     C        0.61120    0.14913    0.84390    1.000
    C149     C        0.56250    0.05360    0.59550    1.000
    C150     C        0.66220    0.00860    0.68670    1.000
    O44      O        0.49700    0.15826    0.84850    1.000
    C151     C        0.71060    0.17571    0.89100    1.000
    H85      H        0.50060    0.07590    0.58180    1.000
    C152     C        0.63210    0.03380    0.53790    1.000
    C153     C        0.73490    0.98630    0.63300    1.000
    H86      H        0.67210    0.99930    0.73770    1.000
    Zn8      Zn       0.36147    0.21290    0.87077    1.000
    C154     C        0.73240    0.16040    0.96570    1.000
    C155     C        0.78100    0.21390    0.86270    1.000
    H87      H        0.61840    0.04310    0.48720    1.000
    C156     C        0.72230    0.99970    0.55720    1.000
    H88      H        0.79170    0.96250    0.64800    1.000
    O45      O        0.67310    0.21293    0.74250    1.000
    O46      O        0.99590    0.23565    0.10710    1.000
    O47      O        0.06180    0.27561    0.00820    1.000
    N37      N        0.23160    0.83990    0.39990    1.000
    C157     C        0.98890    0.24450    0.03720    1.000
    H89      H        0.68590    0.13500    0.98430    1.000
    C158     C        0.82310    0.18250    0.01320    1.000
    C159     C        0.87260    0.23490    0.91070    1.000
    C160     C        0.75930    0.23300    0.78300    1.000
    C161     C        0.80560    0.98030    0.50010    1.000
    C162     C        0.19040    0.84690    0.47040    1.000
    C163     C        0.18050    0.86710    0.34390    1.000
    C164     C        0.89340    0.21970    0.98580    1.000
    H90      H        0.83640    0.17210    0.06350    1.000
    H91      H        0.92110    0.25980    0.89210    1.000
    O48      O        0.81990    0.26760    0.76290    1.000
    N38      N        0.80830    0.99630    0.42780    1.000
    N39      N        0.88990    0.94573    0.51310    1.000
    C165     C        0.09900    0.87910    0.48720    1.000
    H92      H        0.22600    0.82880    0.51020    1.000
    C166     C        0.08830    0.90000    0.35660    1.000
    H93      H        0.20870    0.86340    0.29430    1.000
    H94      H        0.76140    0.01840    0.40790    1.000
    N40      N        0.89930    0.97100    0.39110    1.000
    C167     C        0.94470    0.94120    0.44490    1.000
    C168     C        0.04490    0.90670    0.42950    1.000
    H95      H        0.07340    0.88240    0.53730    1.000
    H96      H        0.05480    0.91800    0.31600    1.000
    Zn9      Zn       0.00000    0.41412    0.25000    1.000
    Zn10     Zn       0.50000    0.91412    0.25000    1.000
    Zn11     Zn       0.00000    0.58588    0.75000    1.000
    Zn12     Zn       0.50000    0.08588    0.75000    1.000
