# CIF file generated by openbabel 3.1.0, see https://openbabel.org
data_I
_chemical_name_common 'image0'
_cell_length_a 28.9603
_cell_length_b 28.9603
_cell_length_c 10.5023
_cell_angle_alpha 90
_cell_angle_beta 90
_cell_angle_gamma 90
_space_group_name_H-M_alt 'P 1'
_space_group_name_Hall 'P 1'
loop_
    _symmetry_equiv_pos_as_xyz
    x,y,z
loop_
    _atom_site_label
    _atom_site_type_symbol
    _atom_site_fract_x
    _atom_site_fract_y
    _atom_site_fract_z
    _atom_site_occupancy
    Y1       Y        0.89117    0.18331    0.21466    1.000
    C1       C        0.95807    0.28172    0.25890    1.000
    C2       C        0.00151    0.28100    0.33320    1.000
    C3       C        0.02035    0.24671    0.40380    1.000
    H1       H        0.00790    0.21680    0.41750    1.000
    C4       C        0.06246    0.26447    0.45360    1.000
    H2       H        0.08370    0.24860    0.50710    1.000
    C5       C        0.06647    0.30770    0.41070    1.000
    C6       C        0.10204    0.34231    0.43530    1.000
    C7       C        0.82472    0.22298    0.98380    1.000
    C8       C        0.78287    0.20273    0.92590    1.000
    C9       C        0.77110    0.15788    0.90900    1.000
    H3       H        0.78790    0.13160    0.93730    1.000
    C10      C        0.99084    0.12195    0.25060    1.000
    H4       H        0.98900    0.12300    0.16030    1.000
    C11      C        0.02940    0.10050    0.30680    1.000
    H5       H        0.05280    0.08730    0.25520    1.000
    C12      C        0.03260    0.09900    0.43640    1.000
    H6       H        0.05850    0.08470    0.47560    1.000
    C13      C        0.99768    0.11836    0.51140    1.000
    C14      C        0.99700    0.11725    0.64870    1.000
    H7       H        0.02270    0.10460    0.69280    1.000
    C15      C        0.96133    0.13351    0.71560    1.000
    H8       H        0.96170    0.13100    0.80580    1.000
    C16      C        0.92310    0.15437    0.65500    1.000
    C17      C        0.88380    0.17012    0.71990    1.000
    H9       H        0.88250    0.16880    0.81020    1.000
    C18      C        0.84780    0.18710    0.65370    1.000
    H10      H        0.82060    0.19690    0.69670    1.000
    C19      C        0.85070    0.19025    0.52110    1.000
    H11      H        0.82530    0.20310    0.47640    1.000
    C20      C        0.92255    0.15721    0.51940    1.000
    C21      C        0.96030    0.13882    0.44720    1.000
    N1       N        0.95735    0.14050    0.31740    1.000
    N2       N        0.88665    0.17638    0.45460    1.000
    O1       O        0.94890    0.31645    0.19250    1.000
    O2       O        0.93370    0.24543    0.26760    1.000
    O3       O        0.02925    0.31900    0.33430    1.000
    O4       O        0.10206    0.38204    0.38610    1.000
    O5       O        0.13394    0.32948    0.51050    1.000
    O6       O        0.83070    0.26587    0.97950    1.000
    O7       O        0.85155    0.19385    0.03150    1.000
    Y2       Y        0.39117    0.68331    0.71466    1.000
    C22      C        0.45807    0.78172    0.75890    1.000
    C23      C        0.50151    0.78100    0.83320    1.000
    C24      C        0.52035    0.74671    0.90380    1.000
    H12      H        0.50790    0.71680    0.91750    1.000
    C25      C        0.56246    0.76447    0.95360    1.000
    H13      H        0.58370    0.74860    0.00710    1.000
    C26      C        0.56647    0.80770    0.91070    1.000
    C27      C        0.60204    0.84231    0.93530    1.000
    C28      C        0.32472    0.72298    0.48380    1.000
    C29      C        0.28287    0.70273    0.42590    1.000
    C30      C        0.27110    0.65788    0.40900    1.000
    H14      H        0.28790    0.63160    0.43730    1.000
    C31      C        0.49084    0.62195    0.75060    1.000
    H15      H        0.48900    0.62300    0.66030    1.000
    C32      C        0.52940    0.60050    0.80680    1.000
    H16      H        0.55280    0.58730    0.75520    1.000
    C33      C        0.53260    0.59900    0.93640    1.000
    H17      H        0.55850    0.58470    0.97560    1.000
    C34      C        0.49768    0.61836    0.01140    1.000
    C35      C        0.49700    0.61725    0.14870    1.000
    H18      H        0.52270    0.60460    0.19280    1.000
    C36      C        0.46133    0.63351    0.21560    1.000
    H19      H        0.46170    0.63100    0.30580    1.000
    C37      C        0.42310    0.65437    0.15500    1.000
    C38      C        0.38380    0.67012    0.21990    1.000
    H20      H        0.38250    0.66880    0.31020    1.000
    C39      C        0.34780    0.68710    0.15370    1.000
    H21      H        0.32060    0.69690    0.19670    1.000
    C40      C        0.35070    0.69025    0.02110    1.000
    H22      H        0.32530    0.70310    0.97640    1.000
    C41      C        0.42255    0.65721    0.01940    1.000
    C42      C        0.46030    0.63882    0.94720    1.000
    N3       N        0.45735    0.64050    0.81740    1.000
    N4       N        0.38665    0.67638    0.95460    1.000
    O8       O        0.44890    0.81645    0.69250    1.000
    O9       O        0.43370    0.74543    0.76760    1.000
    O10      O        0.52925    0.81900    0.83430    1.000
    O11      O        0.60206    0.88204    0.88610    1.000
    O12      O        0.63394    0.82948    0.01050    1.000
    O13      O        0.33070    0.76587    0.47950    1.000
    O14      O        0.35155    0.69385    0.53150    1.000
    Y3       Y        0.10883    0.81669    0.21466    1.000
    C43      C        0.04193    0.71828    0.25890    1.000
    C44      C        0.99849    0.71900    0.33320    1.000
    C45      C        0.97965    0.75329    0.40380    1.000
    H23      H        0.99210    0.78320    0.41750    1.000
    C46      C        0.93754    0.73553    0.45360    1.000
    H24      H        0.91630    0.75140    0.50710    1.000
    C47      C        0.93353    0.69230    0.41070    1.000
    C48      C        0.89796    0.65769    0.43530    1.000
    C49      C        0.17528    0.77702    0.98380    1.000
    C50      C        0.21713    0.79727    0.92590    1.000
    C51      C        0.22890    0.84212    0.90900    1.000
    H25      H        0.21210    0.86840    0.93730    1.000
    C52      C        0.00916    0.87805    0.25060    1.000
    H26      H        0.01100    0.87700    0.16030    1.000
    C53      C        0.97060    0.89950    0.30680    1.000
    H27      H        0.94720    0.91270    0.25520    1.000
    C54      C        0.96740    0.90100    0.43640    1.000
    H28      H        0.94150    0.91530    0.47560    1.000
    C55      C        0.00232    0.88164    0.51140    1.000
    C56      C        0.00300    0.88275    0.64870    1.000
    H29      H        0.97730    0.89540    0.69280    1.000
    C57      C        0.03867    0.86649    0.71560    1.000
    H30      H        0.03830    0.86900    0.80580    1.000
    C58      C        0.07690    0.84563    0.65500    1.000
    C59      C        0.11620    0.82988    0.71990    1.000
    H31      H        0.11750    0.83120    0.81020    1.000
    C60      C        0.15220    0.81290    0.65370    1.000
    H32      H        0.17940    0.80310    0.69670    1.000
    C61      C        0.14930    0.80975    0.52110    1.000
    H33      H        0.17470    0.79690    0.47640    1.000
    C62      C        0.07745    0.84279    0.51940    1.000
    C63      C        0.03970    0.86118    0.44720    1.000
    N5       N        0.04265    0.85950    0.31740    1.000
    N6       N        0.11335    0.82362    0.45460    1.000
    O15      O        0.05110    0.68355    0.19250    1.000
    O16      O        0.06630    0.75457    0.26760    1.000
    O17      O        0.97075    0.68100    0.33430    1.000
    O18      O        0.89794    0.61796    0.38610    1.000
    O19      O        0.86606    0.67052    0.51050    1.000
    O20      O        0.16930    0.73413    0.97950    1.000
    O21      O        0.14845    0.80615    0.03150    1.000
    Y4       Y        0.60883    0.31669    0.71466    1.000
    C64      C        0.54193    0.21828    0.75890    1.000
    C65      C        0.49849    0.21900    0.83320    1.000
    C66      C        0.47965    0.25329    0.90380    1.000
    H34      H        0.49210    0.28320    0.91750    1.000
    C67      C        0.43754    0.23553    0.95360    1.000
    H35      H        0.41630    0.25140    0.00710    1.000
    C68      C        0.43353    0.19230    0.91070    1.000
    C69      C        0.39796    0.15769    0.93530    1.000
    C70      C        0.67528    0.27702    0.48380    1.000
    C71      C        0.71713    0.29727    0.42590    1.000
    C72      C        0.72890    0.34212    0.40900    1.000
    H36      H        0.71210    0.36840    0.43730    1.000
    C73      C        0.50916    0.37805    0.75060    1.000
    H37      H        0.51100    0.37700    0.66030    1.000
    C74      C        0.47060    0.39950    0.80680    1.000
    H38      H        0.44720    0.41270    0.75520    1.000
    C75      C        0.46740    0.40100    0.93640    1.000
    H39      H        0.44150    0.41530    0.97560    1.000
    C76      C        0.50232    0.38164    0.01140    1.000
    C77      C        0.50300    0.38275    0.14870    1.000
    H40      H        0.47730    0.39540    0.19280    1.000
    C78      C        0.53867    0.36649    0.21560    1.000
    H41      H        0.53830    0.36900    0.30580    1.000
    C79      C        0.57690    0.34563    0.15500    1.000
    C80      C        0.61620    0.32988    0.21990    1.000
    H42      H        0.61750    0.33120    0.31020    1.000
    C81      C        0.65220    0.31290    0.15370    1.000
    H43      H        0.67940    0.30310    0.19670    1.000
    C82      C        0.64930    0.30975    0.02110    1.000
    H44      H        0.67470    0.29690    0.97640    1.000
    C83      C        0.57745    0.34279    0.01940    1.000
    C84      C        0.53970    0.36118    0.94720    1.000
    N7       N        0.54265    0.35950    0.81740    1.000
    N8       N        0.61335    0.32362    0.95460    1.000
    O22      O        0.55110    0.18355    0.69250    1.000
    O23      O        0.56630    0.25457    0.76760    1.000
    O24      O        0.47075    0.18100    0.83430    1.000
    O25      O        0.39794    0.11796    0.88610    1.000
    O26      O        0.36606    0.17052    0.01050    1.000
    O27      O        0.66930    0.23413    0.47950    1.000
    O28      O        0.64845    0.30615    0.53150    1.000
    Y5       Y        0.18331    0.10883    0.78534    1.000
    C85      C        0.28172    0.04193    0.74110    1.000
    C86      C        0.28100    0.99849    0.66680    1.000
    C87      C        0.24671    0.97965    0.59620    1.000
    H45      H        0.21680    0.99210    0.58250    1.000
    C88      C        0.26447    0.93754    0.54640    1.000
    H46      H        0.24860    0.91630    0.49290    1.000
    C89      C        0.30770    0.93353    0.58930    1.000
    C90      C        0.34231    0.89796    0.56470    1.000
    C91      C        0.22298    0.17528    0.01620    1.000
    C92      C        0.20273    0.21713    0.07410    1.000
    C93      C        0.15788    0.22890    0.09100    1.000
    H47      H        0.13160    0.21210    0.06270    1.000
    C94      C        0.12195    0.00916    0.74940    1.000
    H48      H        0.12300    0.01100    0.83970    1.000
    C95      C        0.10050    0.97060    0.69320    1.000
    H49      H        0.08730    0.94720    0.74480    1.000
    C96      C        0.09900    0.96740    0.56360    1.000
    H50      H        0.08470    0.94150    0.52440    1.000
    C97      C        0.11836    0.00232    0.48860    1.000
    C98      C        0.11725    0.00300    0.35130    1.000
    H51      H        0.10460    0.97730    0.30720    1.000
    C99      C        0.13351    0.03867    0.28440    1.000
    H52      H        0.13100    0.03830    0.19420    1.000
    C100     C        0.15437    0.07690    0.34500    1.000
    C101     C        0.17012    0.11620    0.28010    1.000
    H53      H        0.16880    0.11750    0.18980    1.000
    C102     C        0.18710    0.15220    0.34630    1.000
    H54      H        0.19690    0.17940    0.30330    1.000
    C103     C        0.19025    0.14930    0.47890    1.000
    H55      H        0.20310    0.17470    0.52360    1.000
    C104     C        0.15721    0.07745    0.48060    1.000
    C105     C        0.13882    0.03970    0.55280    1.000
    N9       N        0.14050    0.04265    0.68260    1.000
    N10      N        0.17638    0.11335    0.54540    1.000
    O29      O        0.31645    0.05110    0.80750    1.000
    O30      O        0.24543    0.06630    0.73240    1.000
    O31      O        0.31900    0.97075    0.66570    1.000
    O32      O        0.38204    0.89794    0.61390    1.000
    O33      O        0.32948    0.86606    0.48950    1.000
    O34      O        0.26587    0.16930    0.02050    1.000
    O35      O        0.19385    0.14845    0.96850    1.000
    Y6       Y        0.68331    0.60883    0.28534    1.000
    C106     C        0.78172    0.54193    0.24110    1.000
    C107     C        0.78100    0.49849    0.16680    1.000
    C108     C        0.74671    0.47965    0.09620    1.000
    H56      H        0.71680    0.49210    0.08250    1.000
    C109     C        0.76447    0.43754    0.04640    1.000
    H57      H        0.74860    0.41630    0.99290    1.000
    C110     C        0.80770    0.43353    0.08930    1.000
    C111     C        0.84231    0.39796    0.06470    1.000
    C112     C        0.72298    0.67528    0.51620    1.000
    C113     C        0.70273    0.71713    0.57410    1.000
    C114     C        0.65788    0.72890    0.59100    1.000
    H58      H        0.63160    0.71210    0.56270    1.000
    C115     C        0.62195    0.50916    0.24940    1.000
    H59      H        0.62300    0.51100    0.33970    1.000
    C116     C        0.60050    0.47060    0.19320    1.000
    H60      H        0.58730    0.44720    0.24480    1.000
    C117     C        0.59900    0.46740    0.06360    1.000
    H61      H        0.58470    0.44150    0.02440    1.000
    C118     C        0.61836    0.50232    0.98860    1.000
    C119     C        0.61725    0.50300    0.85130    1.000
    H62      H        0.60460    0.47730    0.80720    1.000
    C120     C        0.63351    0.53867    0.78440    1.000
    H63      H        0.63100    0.53830    0.69420    1.000
    C121     C        0.65437    0.57690    0.84500    1.000
    C122     C        0.67012    0.61620    0.78010    1.000
    H64      H        0.66880    0.61750    0.68980    1.000
    C123     C        0.68710    0.65220    0.84630    1.000
    H65      H        0.69690    0.67940    0.80330    1.000
    C124     C        0.69025    0.64930    0.97890    1.000
    H66      H        0.70310    0.67470    0.02360    1.000
    C125     C        0.65721    0.57745    0.98060    1.000
    C126     C        0.63882    0.53970    0.05280    1.000
    N11      N        0.64050    0.54265    0.18260    1.000
    N12      N        0.67638    0.61335    0.04540    1.000
    O36      O        0.81645    0.55110    0.30750    1.000
    O37      O        0.74543    0.56630    0.23240    1.000
    O38      O        0.81900    0.47075    0.16570    1.000
    O39      O        0.88204    0.39794    0.11390    1.000
    O40      O        0.82948    0.36606    0.98950    1.000
    O41      O        0.76587    0.66930    0.52050    1.000
    O42      O        0.69385    0.64845    0.46850    1.000
    Y7       Y        0.81669    0.89117    0.78534    1.000
    C127     C        0.71828    0.95807    0.74110    1.000
    C128     C        0.71900    0.00151    0.66680    1.000
    C129     C        0.75329    0.02035    0.59620    1.000
    H67      H        0.78320    0.00790    0.58250    1.000
    C130     C        0.73553    0.06246    0.54640    1.000
    H68      H        0.75140    0.08370    0.49290    1.000
    C131     C        0.69230    0.06647    0.58930    1.000
    C132     C        0.65769    0.10204    0.56470    1.000
    C133     C        0.77702    0.82472    0.01620    1.000
    C134     C        0.79727    0.78287    0.07410    1.000
    C135     C        0.84212    0.77110    0.09100    1.000
    H69      H        0.86840    0.78790    0.06270    1.000
    C136     C        0.87805    0.99084    0.74940    1.000
    H70      H        0.87700    0.98900    0.83970    1.000
    C137     C        0.89950    0.02940    0.69320    1.000
    H71      H        0.91270    0.05280    0.74480    1.000
    C138     C        0.90100    0.03260    0.56360    1.000
    H72      H        0.91530    0.05850    0.52440    1.000
    C139     C        0.88164    0.99768    0.48860    1.000
    C140     C        0.88275    0.99700    0.35130    1.000
    H73      H        0.89540    0.02270    0.30720    1.000
    C141     C        0.86649    0.96133    0.28440    1.000
    H74      H        0.86900    0.96170    0.19420    1.000
    C142     C        0.84563    0.92310    0.34500    1.000
    C143     C        0.82988    0.88380    0.28010    1.000
    H75      H        0.83120    0.88250    0.18980    1.000
    C144     C        0.81290    0.84780    0.34630    1.000
    H76      H        0.80310    0.82060    0.30330    1.000
    C145     C        0.80975    0.85070    0.47890    1.000
    H77      H        0.79690    0.82530    0.52360    1.000
    C146     C        0.84279    0.92255    0.48060    1.000
    C147     C        0.86118    0.96030    0.55280    1.000
    N13      N        0.85950    0.95735    0.68260    1.000
    N14      N        0.82362    0.88665    0.54540    1.000
    O43      O        0.68355    0.94890    0.80750    1.000
    O44      O        0.75457    0.93370    0.73240    1.000
    O45      O        0.68100    0.02925    0.66570    1.000
    O46      O        0.61796    0.10206    0.61390    1.000
    O47      O        0.67052    0.13394    0.48950    1.000
    O48      O        0.73413    0.83070    0.02050    1.000
    O49      O        0.80615    0.85155    0.96850    1.000
    Y8       Y        0.31669    0.39117    0.28534    1.000
    C148     C        0.21828    0.45807    0.24110    1.000
    C149     C        0.21900    0.50151    0.16680    1.000
    C150     C        0.25329    0.52035    0.09620    1.000
    H78      H        0.28320    0.50790    0.08250    1.000
    C151     C        0.23553    0.56246    0.04640    1.000
    H79      H        0.25140    0.58370    0.99290    1.000
    C152     C        0.19230    0.56647    0.08930    1.000
    C153     C        0.15769    0.60204    0.06470    1.000
    C154     C        0.27702    0.32472    0.51620    1.000
    C155     C        0.29727    0.28287    0.57410    1.000
    C156     C        0.34212    0.27110    0.59100    1.000
    H80      H        0.36840    0.28790    0.56270    1.000
    C157     C        0.37805    0.49084    0.24940    1.000
    H81      H        0.37700    0.48900    0.33970    1.000
    C158     C        0.39950    0.52940    0.19320    1.000
    H82      H        0.41270    0.55280    0.24480    1.000
    C159     C        0.40100    0.53260    0.06360    1.000
    H83      H        0.41530    0.55850    0.02440    1.000
    C160     C        0.38164    0.49768    0.98860    1.000
    C161     C        0.38275    0.49700    0.85130    1.000
    H84      H        0.39540    0.52270    0.80720    1.000
    C162     C        0.36649    0.46133    0.78440    1.000
    H85      H        0.36900    0.46170    0.69420    1.000
    C163     C        0.34563    0.42310    0.84500    1.000
    C164     C        0.32988    0.38380    0.78010    1.000
    H86      H        0.33120    0.38250    0.68980    1.000
    C165     C        0.31290    0.34780    0.84630    1.000
    H87      H        0.30310    0.32060    0.80330    1.000
    C166     C        0.30975    0.35070    0.97890    1.000
    H88      H        0.29690    0.32530    0.02360    1.000
    C167     C        0.34279    0.42255    0.98060    1.000
    C168     C        0.36118    0.46030    0.05280    1.000
    N15      N        0.35950    0.45735    0.18260    1.000
    N16      N        0.32362    0.38665    0.04540    1.000
    O50      O        0.18355    0.44890    0.30750    1.000
    O51      O        0.25457    0.43370    0.23240    1.000
    O52      O        0.18100    0.52925    0.16570    1.000
    O53      O        0.11796    0.60206    0.11390    1.000
    O54      O        0.17052    0.63394    0.98950    1.000
    O55      O        0.23413    0.33070    0.52050    1.000
    O56      O        0.30615    0.35155    0.46850    1.000
    Y9       Y        0.60883    0.18331    0.53534    1.000
    C169     C        0.54193    0.28172    0.49110    1.000
    C170     C        0.49849    0.28100    0.41680    1.000
    C171     C        0.47965    0.24671    0.34620    1.000
    H89      H        0.49210    0.21680    0.33250    1.000
    C172     C        0.43754    0.26447    0.29640    1.000
    H90      H        0.41630    0.24860    0.24290    1.000
    C173     C        0.43353    0.30770    0.33930    1.000
    C174     C        0.39796    0.34231    0.31470    1.000
    C175     C        0.67528    0.22298    0.76620    1.000
    C176     C        0.71713    0.20273    0.82410    1.000
    C177     C        0.72890    0.15788    0.84100    1.000
    H91      H        0.71210    0.13160    0.81270    1.000
    C178     C        0.50916    0.12195    0.49940    1.000
    H92      H        0.51100    0.12300    0.58970    1.000
    C179     C        0.47060    0.10050    0.44320    1.000
    H93      H        0.44720    0.08730    0.49480    1.000
    C180     C        0.46740    0.09900    0.31360    1.000
    H94      H        0.44150    0.08470    0.27440    1.000
    C181     C        0.50232    0.11836    0.23860    1.000
    C182     C        0.50300    0.11725    0.10130    1.000
    H95      H        0.47730    0.10460    0.05720    1.000
    C183     C        0.53867    0.13351    0.03440    1.000
    H96      H        0.53830    0.13100    0.94420    1.000
    C184     C        0.57690    0.15437    0.09500    1.000
    C185     C        0.61620    0.17012    0.03010    1.000
    H97      H        0.61750    0.16880    0.93980    1.000
    C186     C        0.65220    0.18710    0.09630    1.000
    H98      H        0.67940    0.19690    0.05330    1.000
    C187     C        0.64930    0.19025    0.22890    1.000
    H99      H        0.67470    0.20310    0.27360    1.000
    C188     C        0.57745    0.15721    0.23060    1.000
    C189     C        0.53970    0.13882    0.30280    1.000
    N17      N        0.54265    0.14050    0.43260    1.000
    N18      N        0.61335    0.17638    0.29540    1.000
    O57      O        0.55110    0.31645    0.55750    1.000
    O58      O        0.56630    0.24543    0.48240    1.000
    O59      O        0.47075    0.31900    0.41570    1.000
    O60      O        0.39794    0.38204    0.36390    1.000
    O61      O        0.36606    0.32948    0.23950    1.000
    O62      O        0.66930    0.26587    0.77050    1.000
    O63      O        0.64845    0.19385    0.71850    1.000
    Y10      Y        0.10883    0.68331    0.03534    1.000
    C190     C        0.04193    0.78172    0.99110    1.000
    C191     C        0.99849    0.78100    0.91680    1.000
    C192     C        0.97965    0.74671    0.84620    1.000
    H100     H        0.99210    0.71680    0.83250    1.000
    C193     C        0.93754    0.76447    0.79640    1.000
    H101     H        0.91630    0.74860    0.74290    1.000
    C194     C        0.93353    0.80770    0.83930    1.000
    C195     C        0.89796    0.84231    0.81470    1.000
    C196     C        0.17528    0.72298    0.26620    1.000
    C197     C        0.21713    0.70273    0.32410    1.000
    C198     C        0.22890    0.65788    0.34100    1.000
    H102     H        0.21210    0.63160    0.31270    1.000
    C199     C        0.00916    0.62195    0.99940    1.000
    H103     H        0.01100    0.62300    0.08970    1.000
    C200     C        0.97060    0.60050    0.94320    1.000
    H104     H        0.94720    0.58730    0.99480    1.000
    C201     C        0.96740    0.59900    0.81360    1.000
    H105     H        0.94150    0.58470    0.77440    1.000
    C202     C        0.00232    0.61836    0.73860    1.000
    C203     C        0.00300    0.61725    0.60130    1.000
    H106     H        0.97730    0.60460    0.55720    1.000
    C204     C        0.03867    0.63351    0.53440    1.000
    H107     H        0.03830    0.63100    0.44420    1.000
    C205     C        0.07690    0.65437    0.59500    1.000
    C206     C        0.11620    0.67012    0.53010    1.000
    H108     H        0.11750    0.66880    0.43980    1.000
    C207     C        0.15220    0.68710    0.59630    1.000
    H109     H        0.17940    0.69690    0.55330    1.000
    C208     C        0.14930    0.69025    0.72890    1.000
    H110     H        0.17470    0.70310    0.77360    1.000
    C209     C        0.07745    0.65721    0.73060    1.000
    C210     C        0.03970    0.63882    0.80280    1.000
    N19      N        0.04265    0.64050    0.93260    1.000
    N20      N        0.11335    0.67638    0.79540    1.000
    O64      O        0.05110    0.81645    0.05750    1.000
    O65      O        0.06630    0.74543    0.98240    1.000
    O66      O        0.97075    0.81900    0.91570    1.000
    O67      O        0.89794    0.88204    0.86390    1.000
    O68      O        0.86606    0.82948    0.73950    1.000
    O69      O        0.16930    0.76587    0.27050    1.000
    O70      O        0.14845    0.69385    0.21850    1.000
    Y11      Y        0.39117    0.81669    0.53534    1.000
    C211     C        0.45807    0.71828    0.49110    1.000
    C212     C        0.50151    0.71900    0.41680    1.000
    C213     C        0.52035    0.75329    0.34620    1.000
    H111     H        0.50790    0.78320    0.33250    1.000
    C214     C        0.56246    0.73553    0.29640    1.000
    H112     H        0.58370    0.75140    0.24290    1.000
    C215     C        0.56647    0.69230    0.33930    1.000
    C216     C        0.60204    0.65769    0.31470    1.000
    C217     C        0.32472    0.77702    0.76620    1.000
    C218     C        0.28287    0.79727    0.82410    1.000
    C219     C        0.27110    0.84212    0.84100    1.000
    H113     H        0.28790    0.86840    0.81270    1.000
    C220     C        0.49084    0.87805    0.49940    1.000
    H114     H        0.48900    0.87700    0.58970    1.000
    C221     C        0.52940    0.89950    0.44320    1.000
    H115     H        0.55280    0.91270    0.49480    1.000
    C222     C        0.53260    0.90100    0.31360    1.000
    H116     H        0.55850    0.91530    0.27440    1.000
    C223     C        0.49768    0.88164    0.23860    1.000
    C224     C        0.49700    0.88275    0.10130    1.000
    H117     H        0.52270    0.89540    0.05720    1.000
    C225     C        0.46133    0.86649    0.03440    1.000
    H118     H        0.46170    0.86900    0.94420    1.000
    C226     C        0.42310    0.84563    0.09500    1.000
    C227     C        0.38380    0.82988    0.03010    1.000
    H119     H        0.38250    0.83120    0.93980    1.000
    C228     C        0.34780    0.81290    0.09630    1.000
    H120     H        0.32060    0.80310    0.05330    1.000
    C229     C        0.35070    0.80975    0.22890    1.000
    H121     H        0.32530    0.79690    0.27360    1.000
    C230     C        0.42255    0.84279    0.23060    1.000
    C231     C        0.46030    0.86118    0.30280    1.000
    N21      N        0.45735    0.85950    0.43260    1.000
    N22      N        0.38665    0.82362    0.29540    1.000
    O71      O        0.44890    0.68355    0.55750    1.000
    O72      O        0.43370    0.75457    0.48240    1.000
    O73      O        0.52925    0.68100    0.41570    1.000
    O74      O        0.60206    0.61796    0.36390    1.000
    O75      O        0.63394    0.67052    0.23950    1.000
    O76      O        0.33070    0.73413    0.77050    1.000
    O77      O        0.35155    0.80615    0.71850    1.000
    Y12      Y        0.89117    0.31669    0.03534    1.000
    C232     C        0.95807    0.21828    0.99110    1.000
    C233     C        0.00151    0.21900    0.91680    1.000
    C234     C        0.02035    0.25329    0.84620    1.000
    H122     H        0.00790    0.28320    0.83250    1.000
    C235     C        0.06246    0.23553    0.79640    1.000
    H123     H        0.08370    0.25140    0.74290    1.000
    C236     C        0.06647    0.19230    0.83930    1.000
    C237     C        0.10204    0.15769    0.81470    1.000
    C238     C        0.82472    0.27702    0.26620    1.000
    C239     C        0.78287    0.29727    0.32410    1.000
    C240     C        0.77110    0.34212    0.34100    1.000
    H124     H        0.78790    0.36840    0.31270    1.000
    C241     C        0.99084    0.37805    0.99940    1.000
    H125     H        0.98900    0.37700    0.08970    1.000
    C242     C        0.02940    0.39950    0.94320    1.000
    H126     H        0.05280    0.41270    0.99480    1.000
    C243     C        0.03260    0.40100    0.81360    1.000
    H127     H        0.05850    0.41530    0.77440    1.000
    C244     C        0.99768    0.38164    0.73860    1.000
    C245     C        0.99700    0.38275    0.60130    1.000
    H128     H        0.02270    0.39540    0.55720    1.000
    C246     C        0.96133    0.36649    0.53440    1.000
    H129     H        0.96170    0.36900    0.44420    1.000
    C247     C        0.92310    0.34563    0.59500    1.000
    C248     C        0.88380    0.32988    0.53010    1.000
    H130     H        0.88250    0.33120    0.43980    1.000
    C249     C        0.84780    0.31290    0.59630    1.000
    H131     H        0.82060    0.30310    0.55330    1.000
    C250     C        0.85070    0.30975    0.72890    1.000
    H132     H        0.82530    0.29690    0.77360    1.000
    C251     C        0.92255    0.34279    0.73060    1.000
    C252     C        0.96030    0.36118    0.80280    1.000
    N23      N        0.95735    0.35950    0.93260    1.000
    N24      N        0.88665    0.32362    0.79540    1.000
    O78      O        0.94890    0.18355    0.05750    1.000
    O79      O        0.93370    0.25457    0.98240    1.000
    O80      O        0.02925    0.18100    0.91570    1.000
    O81      O        0.10206    0.11796    0.86390    1.000
    O82      O        0.13394    0.17052    0.73950    1.000
    O83      O        0.83070    0.23413    0.27050    1.000
    O84      O        0.85155    0.30615    0.21850    1.000
    Y13      Y        0.31669    0.10883    0.96466    1.000
    C253     C        0.21828    0.04193    0.00890    1.000
    C254     C        0.21900    0.99849    0.08320    1.000
    C255     C        0.25329    0.97965    0.15380    1.000
    H133     H        0.28320    0.99210    0.16750    1.000
    C256     C        0.23553    0.93754    0.20360    1.000
    H134     H        0.25140    0.91630    0.25710    1.000
    C257     C        0.19230    0.93353    0.16070    1.000
    C258     C        0.15769    0.89796    0.18530    1.000
    C259     C        0.27702    0.17528    0.73380    1.000
    C260     C        0.29727    0.21713    0.67590    1.000
    C261     C        0.34212    0.22890    0.65900    1.000
    H135     H        0.36840    0.21210    0.68730    1.000
    C262     C        0.37805    0.00916    0.00060    1.000
    H136     H        0.37700    0.01100    0.91030    1.000
    C263     C        0.39950    0.97060    0.05680    1.000
    H137     H        0.41270    0.94720    0.00520    1.000
    C264     C        0.40100    0.96740    0.18640    1.000
    H138     H        0.41530    0.94150    0.22560    1.000
    C265     C        0.38164    0.00232    0.26140    1.000
    C266     C        0.38275    0.00300    0.39870    1.000
    H139     H        0.39540    0.97730    0.44280    1.000
    C267     C        0.36649    0.03867    0.46560    1.000
    H140     H        0.36900    0.03830    0.55580    1.000
    C268     C        0.34563    0.07690    0.40500    1.000
    C269     C        0.32988    0.11620    0.46990    1.000
    H141     H        0.33120    0.11750    0.56020    1.000
    C270     C        0.31290    0.15220    0.40370    1.000
    H142     H        0.30310    0.17940    0.44670    1.000
    C271     C        0.30975    0.14930    0.27110    1.000
    H143     H        0.29690    0.17470    0.22640    1.000
    C272     C        0.34279    0.07745    0.26940    1.000
    C273     C        0.36118    0.03970    0.19720    1.000
    N25      N        0.35950    0.04265    0.06740    1.000
    N26      N        0.32362    0.11335    0.20460    1.000
    O85      O        0.18355    0.05110    0.94250    1.000
    O86      O        0.25457    0.06630    0.01760    1.000
    O87      O        0.18100    0.97075    0.08430    1.000
    O88      O        0.11796    0.89794    0.13610    1.000
    O89      O        0.17052    0.86606    0.26050    1.000
    O90      O        0.23413    0.16930    0.72950    1.000
    O91      O        0.30615    0.14845    0.78150    1.000
    Y14      Y        0.81669    0.60883    0.46466    1.000
    C274     C        0.71828    0.54193    0.50890    1.000
    C275     C        0.71900    0.49849    0.58320    1.000
    C276     C        0.75329    0.47965    0.65380    1.000
    H144     H        0.78320    0.49210    0.66750    1.000
    C277     C        0.73553    0.43754    0.70360    1.000
    H145     H        0.75140    0.41630    0.75710    1.000
    C278     C        0.69230    0.43353    0.66070    1.000
    C279     C        0.65769    0.39796    0.68530    1.000
    C280     C        0.77702    0.67528    0.23380    1.000
    C281     C        0.79727    0.71713    0.17590    1.000
    C282     C        0.84212    0.72890    0.15900    1.000
    H146     H        0.86840    0.71210    0.18730    1.000
    C283     C        0.87805    0.50916    0.50060    1.000
    H147     H        0.87700    0.51100    0.41030    1.000
    C284     C        0.89950    0.47060    0.55680    1.000
    H148     H        0.91270    0.44720    0.50520    1.000
    C285     C        0.90100    0.46740    0.68640    1.000
    H149     H        0.91530    0.44150    0.72560    1.000
    C286     C        0.88164    0.50232    0.76140    1.000
    C287     C        0.88275    0.50300    0.89870    1.000
    H150     H        0.89540    0.47730    0.94280    1.000
    C288     C        0.86649    0.53867    0.96560    1.000
    H151     H        0.86900    0.53830    0.05580    1.000
    C289     C        0.84563    0.57690    0.90500    1.000
    C290     C        0.82988    0.61620    0.96990    1.000
    H152     H        0.83120    0.61750    0.06020    1.000
    C291     C        0.81290    0.65220    0.90370    1.000
    H153     H        0.80310    0.67940    0.94670    1.000
    C292     C        0.80975    0.64930    0.77110    1.000
    H154     H        0.79690    0.67470    0.72640    1.000
    C293     C        0.84279    0.57745    0.76940    1.000
    C294     C        0.86118    0.53970    0.69720    1.000
    N27      N        0.85950    0.54265    0.56740    1.000
    N28      N        0.82362    0.61335    0.70460    1.000
    O92      O        0.68355    0.55110    0.44250    1.000
    O93      O        0.75457    0.56630    0.51760    1.000
    O94      O        0.68100    0.47075    0.58430    1.000
    O95      O        0.61796    0.39794    0.63610    1.000
    O96      O        0.67052    0.36606    0.76050    1.000
    O97      O        0.73413    0.66930    0.22950    1.000
    O98      O        0.80615    0.64845    0.28150    1.000
    Y15      Y        0.68331    0.89117    0.96466    1.000
    C295     C        0.78172    0.95807    0.00890    1.000
    C296     C        0.78100    0.00151    0.08320    1.000
    C297     C        0.74671    0.02035    0.15380    1.000
    H155     H        0.71680    0.00790    0.16750    1.000
    C298     C        0.76447    0.06246    0.20360    1.000
    H156     H        0.74860    0.08370    0.25710    1.000
    C299     C        0.80770    0.06647    0.16070    1.000
    C300     C        0.84231    0.10204    0.18530    1.000
    C301     C        0.72298    0.82472    0.73380    1.000
    C302     C        0.70273    0.78287    0.67590    1.000
    C303     C        0.65788    0.77110    0.65900    1.000
    H157     H        0.63160    0.78790    0.68730    1.000
    C304     C        0.62195    0.99084    0.00060    1.000
    H158     H        0.62300    0.98900    0.91030    1.000
    C305     C        0.60050    0.02940    0.05680    1.000
    H159     H        0.58730    0.05280    0.00520    1.000
    C306     C        0.59900    0.03260    0.18640    1.000
    H160     H        0.58470    0.05850    0.22560    1.000
    C307     C        0.61836    0.99768    0.26140    1.000
    C308     C        0.61725    0.99700    0.39870    1.000
    H161     H        0.60460    0.02270    0.44280    1.000
    C309     C        0.63351    0.96133    0.46560    1.000
    H162     H        0.63100    0.96170    0.55580    1.000
    C310     C        0.65437    0.92310    0.40500    1.000
    C311     C        0.67012    0.88380    0.46990    1.000
    H163     H        0.66880    0.88250    0.56020    1.000
    C312     C        0.68710    0.84780    0.40370    1.000
    H164     H        0.69690    0.82060    0.44670    1.000
    C313     C        0.69025    0.85070    0.27110    1.000
    H165     H        0.70310    0.82530    0.22640    1.000
    C314     C        0.65721    0.92255    0.26940    1.000
    C315     C        0.63882    0.96030    0.19720    1.000
    N29      N        0.64050    0.95735    0.06740    1.000
    N30      N        0.67638    0.88665    0.20460    1.000
    O99      O        0.81645    0.94890    0.94250    1.000
    O100     O        0.74543    0.93370    0.01760    1.000
    O101     O        0.81900    0.02925    0.08430    1.000
    O102     O        0.88204    0.10206    0.13610    1.000
    O103     O        0.82948    0.13394    0.26050    1.000
    O104     O        0.76587    0.83070    0.72950    1.000
    O105     O        0.69385    0.85155    0.78150    1.000
    Y16      Y        0.18331    0.39117    0.46466    1.000
    C316     C        0.28172    0.45807    0.50890    1.000
    C317     C        0.28100    0.50151    0.58320    1.000
    C318     C        0.24671    0.52035    0.65380    1.000
    H166     H        0.21680    0.50790    0.66750    1.000
    C319     C        0.26447    0.56246    0.70360    1.000
    H167     H        0.24860    0.58370    0.75710    1.000
    C320     C        0.30770    0.56647    0.66070    1.000
    C321     C        0.34231    0.60204    0.68530    1.000
    C322     C        0.22298    0.32472    0.23380    1.000
    C323     C        0.20273    0.28287    0.17590    1.000
    C324     C        0.15788    0.27110    0.15900    1.000
    H168     H        0.13160    0.28790    0.18730    1.000
    C325     C        0.12195    0.49084    0.50060    1.000
    H169     H        0.12300    0.48900    0.41030    1.000
    C326     C        0.10050    0.52940    0.55680    1.000
    H170     H        0.08730    0.55280    0.50520    1.000
    C327     C        0.09900    0.53260    0.68640    1.000
    H171     H        0.08470    0.55850    0.72560    1.000
    C328     C        0.11836    0.49768    0.76140    1.000
    C329     C        0.11725    0.49700    0.89870    1.000
    H172     H        0.10460    0.52270    0.94280    1.000
    C330     C        0.13351    0.46133    0.96560    1.000
    H173     H        0.13100    0.46170    0.05580    1.000
    C331     C        0.15437    0.42310    0.90500    1.000
    C332     C        0.17012    0.38380    0.96990    1.000
    H174     H        0.16880    0.38250    0.06020    1.000
    C333     C        0.18710    0.34780    0.90370    1.000
    H175     H        0.19690    0.32060    0.94670    1.000
    C334     C        0.19025    0.35070    0.77110    1.000
    H176     H        0.20310    0.32530    0.72640    1.000
    C335     C        0.15721    0.42255    0.76940    1.000
    C336     C        0.13882    0.46030    0.69720    1.000
    N31      N        0.14050    0.45735    0.56740    1.000
    N32      N        0.17638    0.38665    0.70460    1.000
    O106     O        0.31645    0.44890    0.44250    1.000
    O107     O        0.24543    0.43370    0.51760    1.000
    O108     O        0.31900    0.52925    0.58430    1.000
    O109     O        0.38204    0.60206    0.63610    1.000
    O110     O        0.32948    0.63394    0.76050    1.000
    O111     O        0.26587    0.33070    0.22950    1.000
    O112     O        0.19385    0.35155    0.28150    1.000
    O113     O        0.75000    0.23124    0.87500    1.000
    O114     O        0.25000    0.73124    0.37500    1.000
    O115     O        0.25000    0.76876    0.87500    1.000
    O116     O        0.75000    0.26876    0.37500    1.000
    O117     O        0.23124    0.25000    0.12500    1.000
    O118     O        0.76876    0.75000    0.12500    1.000
    O119     O        0.26876    0.25000    0.62500    1.000
    O120     O        0.73124    0.75000    0.62500    1.000
