# CIF file generated by openbabel 3.1.0, see https://openbabel.org
data_I
_chemical_name_common 'image0'
_cell_length_a 12.889
_cell_length_b 15.266
_cell_length_c 10.389
_cell_angle_alpha 90
_cell_angle_beta 118.06
_cell_angle_gamma 90
_space_group_name_H-M_alt 'P 1'
_space_group_name_Hall 'P 1'
loop_
    _symmetry_equiv_pos_as_xyz
    x,y,z
loop_
    _atom_site_label
    _atom_site_type_symbol
    _atom_site_fract_x
    _atom_site_fract_y
    _atom_site_fract_z
    _atom_site_occupancy
    O1       O        0.66690    0.63170    0.31920    1.000
    Ag1      Ag       0.57313    0.68062    0.42641    1.000
    Ag2      Ag       0.86091    0.35059    0.14104    1.000
    N1       N        0.83450    0.49950    0.12840    1.000
    C1       C        0.78340    0.54270    0.19510    1.000
    H1       H        0.74630    0.51110    0.23840    1.000
    C2       C        0.78400    0.63330    0.20160    1.000
    C3       C        0.72550    0.67930    0.28010    1.000
    C4       C        0.83980    0.68020    0.14010    1.000
    H2       H        0.84300    0.74100    0.14630    1.000
    C5       C        0.89160    0.63600    0.06810    1.000
    C6       C        0.88470    0.54550    0.06420    1.000
    H3       H        0.91690    0.51520    0.01390    1.000
    C7       C        0.95840    0.68150    0.00070    1.000
    O2       O        0.74170    0.75910    0.29730    1.000
    O3       O        0.97030    0.76200    0.02030    1.000
    O4       O        0.99700    0.63510    0.93410    1.000
    O5       O        0.83310    0.13170    0.18080    1.000
    Ag3      Ag       0.92687    0.18062    0.07359    1.000
    Ag4      Ag       0.63909    0.85059    0.35896    1.000
    N2       N        0.66550    0.99950    0.37160    1.000
    C8       C        0.71660    0.04270    0.30490    1.000
    H4       H        0.75370    0.01110    0.26160    1.000
    C9       C        0.71600    0.13330    0.29840    1.000
    C10      C        0.77450    0.17930    0.21990    1.000
    C11      C        0.66020    0.18020    0.35990    1.000
    H5       H        0.65700    0.24100    0.35370    1.000
    C12      C        0.60840    0.13600    0.43190    1.000
    C13      C        0.61530    0.04550    0.43580    1.000
    H6       H        0.58310    0.01520    0.48610    1.000
    C14      C        0.54160    0.18150    0.49930    1.000
    O6       O        0.75830    0.25910    0.20270    1.000
    O7       O        0.52970    0.26200    0.47970    1.000
    O8       O        0.50300    0.13510    0.56590    1.000
    O9       O        0.33310    0.36830    0.68080    1.000
    Ag5      Ag       0.42687    0.31938    0.57359    1.000
    Ag6      Ag       0.13909    0.64941    0.85896    1.000
    N3       N        0.16550    0.50050    0.87160    1.000
    C15      C        0.21660    0.45730    0.80490    1.000
    H7       H        0.25370    0.48890    0.76160    1.000
    C16      C        0.21600    0.36670    0.79840    1.000
    C17      C        0.27450    0.32070    0.71990    1.000
    C18      C        0.16020    0.31980    0.85990    1.000
    H8       H        0.15700    0.25900    0.85370    1.000
    C19      C        0.10840    0.36400    0.93190    1.000
    C20      C        0.11530    0.45450    0.93580    1.000
    H9       H        0.08310    0.48480    0.98610    1.000
    C21      C        0.04160    0.31850    0.99930    1.000
    O10      O        0.25830    0.24090    0.70270    1.000
    O11      O        0.02970    0.23800    0.97970    1.000
    O12      O        0.00300    0.36490    0.06590    1.000
    O13      O        0.16690    0.86830    0.81920    1.000
    Ag7      Ag       0.07313    0.81938    0.92641    1.000
    Ag8      Ag       0.36091    0.14941    0.64104    1.000
    N4       N        0.33450    0.00050    0.62840    1.000
    C22      C        0.28340    0.95730    0.69510    1.000
    H10      H        0.24630    0.98890    0.73840    1.000
    C23      C        0.28400    0.86670    0.70160    1.000
    C24      C        0.22550    0.82070    0.78010    1.000
    C25      C        0.33980    0.81980    0.64010    1.000
    H11      H        0.34300    0.75900    0.64630    1.000
    C26      C        0.39160    0.86400    0.56810    1.000
    C27      C        0.38470    0.95450    0.56420    1.000
    H12      H        0.41690    0.98480    0.51390    1.000
    C28      C        0.45840    0.81850    0.50070    1.000
    O14      O        0.24170    0.74090    0.79730    1.000
    O15      O        0.47030    0.73800    0.52030    1.000
    O16      O        0.49700    0.86490    0.43410    1.000
    O17      O        0.16690    0.13170    0.31920    1.000
    Ag9      Ag       0.07313    0.18062    0.42641    1.000
    Ag10     Ag       0.36091    0.85059    0.14104    1.000
    N5       N        0.33450    0.99950    0.12840    1.000
    C29      C        0.28340    0.04270    0.19510    1.000
    H13      H        0.24630    0.01110    0.23840    1.000
    C30      C        0.28400    0.13330    0.20160    1.000
    C31      C        0.22550    0.17930    0.28010    1.000
    C32      C        0.33980    0.18020    0.14010    1.000
    H14      H        0.34300    0.24100    0.14630    1.000
    C33      C        0.39160    0.13600    0.06810    1.000
    C34      C        0.38470    0.04550    0.06420    1.000
    H15      H        0.41690    0.01520    0.01390    1.000
    C35      C        0.45840    0.18150    0.00070    1.000
    O18      O        0.24170    0.25910    0.29730    1.000
    O19      O        0.47030    0.26200    0.02030    1.000
    O20      O        0.49700    0.13510    0.93410    1.000
    O21      O        0.33310    0.63170    0.18080    1.000
    Ag11     Ag       0.42687    0.68062    0.07359    1.000
    Ag12     Ag       0.13909    0.35059    0.35896    1.000
    N6       N        0.16550    0.49950    0.37160    1.000
    C36      C        0.21660    0.54270    0.30490    1.000
    H16      H        0.25370    0.51110    0.26160    1.000
    C37      C        0.21600    0.63330    0.29840    1.000
    C38      C        0.27450    0.67930    0.21990    1.000
    C39      C        0.16020    0.68020    0.35990    1.000
    H17      H        0.15700    0.74100    0.35370    1.000
    C40      C        0.10840    0.63600    0.43190    1.000
    C41      C        0.11530    0.54550    0.43580    1.000
    H18      H        0.08310    0.51520    0.48610    1.000
    C42      C        0.04160    0.68150    0.49930    1.000
    O22      O        0.25830    0.75910    0.20270    1.000
    O23      O        0.02970    0.76200    0.47970    1.000
    O24      O        0.00300    0.63510    0.56590    1.000
    O25      O        0.83310    0.86830    0.68080    1.000
    Ag13     Ag       0.92687    0.81938    0.57359    1.000
    Ag14     Ag       0.63909    0.14941    0.85896    1.000
    N7       N        0.66550    0.00050    0.87160    1.000
    C43      C        0.71660    0.95730    0.80490    1.000
    H19      H        0.75370    0.98890    0.76160    1.000
    C44      C        0.71600    0.86670    0.79840    1.000
    C45      C        0.77450    0.82070    0.71990    1.000
    C46      C        0.66020    0.81980    0.85990    1.000
    H20      H        0.65700    0.75900    0.85370    1.000
    C47      C        0.60840    0.86400    0.93190    1.000
    C48      C        0.61530    0.95450    0.93580    1.000
    H21      H        0.58310    0.98480    0.98610    1.000
    C49      C        0.54160    0.81850    0.99930    1.000
    O26      O        0.75830    0.74090    0.70270    1.000
    O27      O        0.52970    0.73800    0.97970    1.000
    O28      O        0.50300    0.86490    0.06590    1.000
    O29      O        0.66690    0.36830    0.81920    1.000
    Ag15     Ag       0.57313    0.31938    0.92641    1.000
    Ag16     Ag       0.86091    0.64941    0.64104    1.000
    N8       N        0.83450    0.50050    0.62840    1.000
    C50      C        0.78340    0.45730    0.69510    1.000
    H22      H        0.74630    0.48890    0.73840    1.000
    C51      C        0.78400    0.36670    0.70160    1.000
    C52      C        0.72550    0.32070    0.78010    1.000
    C53      C        0.83980    0.31980    0.64010    1.000
    H23      H        0.84300    0.25900    0.64630    1.000
    C54      C        0.89160    0.36400    0.56810    1.000
    C55      C        0.88470    0.45450    0.56420    1.000
    H24      H        0.91690    0.48480    0.51390    1.000
    C56      C        0.95840    0.31850    0.50070    1.000
    O30      O        0.74170    0.24090    0.79730    1.000
    O31      O        0.97030    0.23800    0.52030    1.000
    O32      O        0.99700    0.36490    0.43410    1.000
