# CIF file generated by openbabel 3.1.0, see https://openbabel.org
data_I
_chemical_name_common 'WEMNAF_clean'
_cell_length_a 8.91
_cell_length_b 12.007
_cell_length_c 12.526
_cell_angle_alpha 77.708
_cell_angle_beta 76.629
_cell_angle_gamma 76.378
_space_group_name_H-M_alt 'P 1'
_space_group_name_Hall 'P 1'
loop_
    _symmetry_equiv_pos_as_xyz
    x,y,z
loop_
    _atom_site_label
    _atom_site_type_symbol
    _atom_site_fract_x
    _atom_site_fract_y
    _atom_site_fract_z
    _atom_site_occupancy
    Zn1      Zn       0.28638    0.74675    0.90393    1.000
    Zn2      Zn       0.71362    0.25325    0.09607    1.000
    Zn3      Zn       0.00000    0.00000    0.00000    1.000
    H1       H        0.02040    0.40010    0.26410    1.000
    H2       H        0.89470    0.51600    0.25490    1.000
    H3       H        0.02320    0.60470    0.05510    1.000
    H4       H        0.42720    0.61120    0.11780    1.000
    H5       H        0.76630    0.64930    0.32170    1.000
    H6       H        0.72840    0.72640    0.41480    1.000
    H7       H        0.80110    0.82350    0.15940    1.000
    H8       H        0.15720    0.90740    0.22450    1.000
    H9       H        0.10990    0.27090    0.36520    1.000
    H10      H        0.17650    0.22460    0.47530    1.000
    H11      H        0.34440    0.25420    0.20090    1.000
    H12      H        0.65290    0.33850    0.32660    1.000
    H13      H        0.35040    0.06520    0.00750    1.000
    H14      H        0.97960    0.59990    0.73590    1.000
    H15      H        0.10530    0.48400    0.74510    1.000
    H16      H        0.97680    0.39530    0.94490    1.000
    H17      H        0.57280    0.38880    0.88220    1.000
    H18      H        0.23370    0.35070    0.67830    1.000
    H19      H        0.27160    0.27360    0.58520    1.000
    H20      H        0.19890    0.17650    0.84060    1.000
    H21      H        0.84280    0.09260    0.77550    1.000
    H22      H        0.89010    0.72910    0.63480    1.000
    H23      H        0.82350    0.77540    0.52470    1.000
    H24      H        0.65560    0.74580    0.79910    1.000
    H25      H        0.34710    0.66150    0.67340    1.000
    H26      H        0.64960    0.93480    0.99250    1.000
    C1       C        0.99830    0.49010    0.39080    1.000
    C2       C        0.91300    0.58970    0.43460    1.000
    C3       C        0.08310    0.39950    0.45690    1.000
    C4       C        0.99820    0.48130    0.27190    1.000
    C5       C        0.10830    0.59460    0.08980    1.000
    C6       C        0.32690    0.59670    0.12550    1.000
    C7       C        0.81300    0.68450    0.36550    1.000
    C8       C        0.88070    0.82780    0.19420    1.000
    C9       C        0.07230    0.87240    0.23060    1.000
    C10      C        0.16980    0.28830    0.41310    1.000
    C11      C        0.39420    0.27580    0.24870    1.000
    C12      C        0.55950    0.32180    0.31880    1.000
    C13      C        0.38530    0.89740    0.97180    1.000
    C14      C        0.42810    0.99960    0.99650    1.000
    C15      C        0.00170    0.50990    0.60920    1.000
    C16      C        0.08700    0.41030    0.56540    1.000
    C17      C        0.91690    0.60050    0.54310    1.000
    C18      C        0.00180    0.51870    0.72810    1.000
    C19      C        0.89170    0.40540    0.91020    1.000
    C20      C        0.67310    0.40330    0.87450    1.000
    C21      C        0.18700    0.31550    0.63450    1.000
    C22      C        0.11930    0.17220    0.80580    1.000
    C23      C        0.92770    0.12760    0.76940    1.000
    C24      C        0.83020    0.71170    0.58690    1.000
    C25      C        0.60580    0.72420    0.75130    1.000
    C26      C        0.44050    0.67820    0.68120    1.000
    C27      C        0.61470    0.10260    0.02820    1.000
    C28      C        0.57190    0.00040    0.00350    1.000
    S1       S        0.94677    0.79980    0.85999    1.000
    S2       S        0.05323    0.20020    0.14001    1.000
    N1       N        0.24200    0.63280    0.04360    1.000
    N2       N        0.11610    0.54030    0.19230    1.000
    N3       N        0.25640    0.53980    0.21620    1.000
    N4       N        0.98410    0.89630    0.15300    1.000
    N5       N        0.90560    0.76660    0.29080    1.000
    N6       N        0.02840    0.79430    0.31730    1.000
    N7       N        0.54180    0.29070    0.22530    1.000
    N8       N        0.32860    0.29620    0.35050    1.000
    N9       N        0.43370    0.32620    0.39720    1.000
    N10      N        0.75800    0.36720    0.95640    1.000
    N11      N        0.88390    0.45970    0.80770    1.000
    N12      N        0.74360    0.46020    0.78380    1.000
    N13      N        0.01590    0.10370    0.84700    1.000
    N14      N        0.09440    0.23340    0.70920    1.000
    N15      N        0.97160    0.20570    0.68270    1.000
    N16      N        0.45820    0.70930    0.77470    1.000
    N17      N        0.67140    0.70380    0.64950    1.000
    N18      N        0.56630    0.67380    0.60280    1.000
    O1       O        0.11830    0.76070    0.82030    1.000
    O2       O        0.92680    0.86860    0.94740    1.000
    O3       O        0.87490    0.69890    0.90450    1.000
    O4       O        0.87830    0.86860    0.76630    1.000
    O5       O        0.24860    0.90860    0.94740    1.000
    O6       O        0.47860    0.80280    0.97130    1.000
    O7       O        0.88170    0.23930    0.17970    1.000
    O8       O        0.07320    0.13140    0.05260    1.000
    O9       O        0.12510    0.30110    0.09550    1.000
    O10      O        0.12170    0.13140    0.23370    1.000
    O11      O        0.75140    0.09140    0.05260    1.000
    O12      O        0.52140    0.19720    0.02870    1.000
