# CIF file generated by openbabel 3.1.0, see https://openbabel.org
data_I
_chemical_name_common 'image0'
_cell_length_a 13.09
_cell_length_b 14.744
_cell_length_c 15.575
_cell_angle_alpha 90
_cell_angle_beta 91.641
_cell_angle_gamma 90
_space_group_name_H-M_alt 'P 1'
_space_group_name_Hall 'P 1'
loop_
    _symmetry_equiv_pos_as_xyz
    x,y,z
loop_
    _atom_site_label
    _atom_site_type_symbol
    _atom_site_fract_x
    _atom_site_fract_y
    _atom_site_fract_z
    _atom_site_occupancy
    Cu1      Cu       0.97853    0.20445    0.10106    1.000
    C1       C        0.60910    0.31120    0.75540    1.000
    H1       H        0.58390    0.37010    0.75440    1.000
    C2       C        0.67700    0.28900    0.82070    1.000
    H2       H        0.69520    0.33110    0.86290    1.000
    C3       C        0.71760    0.20330    0.82250    1.000
    C4       C        0.68560    0.14440    0.75660    1.000
    H3       H        0.70990    0.08520    0.75560    1.000
    C5       C        0.61930    0.17360    0.69440    1.000
    H4       H        0.60200    0.13460    0.64930    1.000
    C6       C        0.79190    0.17350    0.88800    1.000
    C7       C        0.34110    0.23610    0.73180    1.000
    H5       H        0.36710    0.28830    0.75790    1.000
    C8       C        0.27590    0.18400    0.77700    1.000
    H6       H        0.25880    0.20070    0.83230    1.000
    C9       C        0.23520    0.10620    0.74050    1.000
    C10      C        0.26520    0.08490    0.65780    1.000
    H7       H        0.24020    0.03310    0.63040    1.000
    C11      C        0.33260    0.14170    0.61700    1.000
    H8       H        0.35260    0.12630    0.56210    1.000
    C12      C        0.16660    0.04720    0.78750    1.000
    N1       N        0.57730    0.25720    0.69540    1.000
    N2       N        0.83810    0.09330    0.88750    1.000
    N3       N        0.89870    0.09450    0.95790    1.000
    N4       N        0.88800    0.17170    0.99810    1.000
    N5       N        0.82050    0.22320    0.95640    1.000
    N6       N        0.37010    0.21720    0.65270    1.000
    N7       N        0.12440    0.07600    0.86090    1.000
    N8       N        0.07150    0.00530    0.88620    1.000
    N9       N        0.08210    0.93660    0.83300    1.000
    N10      N        0.14180    0.96280    0.76890    1.000
    N11      N        0.08370    0.12400    0.05260    1.000
    N12      N        0.16960    0.13840    0.05610    1.000
    N13      N        0.25570    0.15330    0.05930    1.000
    Cu2      Cu       0.52147    0.70445    0.39894    1.000
    C13      C        0.89090    0.81120    0.74460    1.000
    H9       H        0.91610    0.87010    0.74560    1.000
    C14      C        0.82300    0.78900    0.67930    1.000
    H10      H        0.80480    0.83110    0.63710    1.000
    C15      C        0.78240    0.70330    0.67750    1.000
    C16      C        0.81440    0.64440    0.74340    1.000
    H11      H        0.79010    0.58520    0.74440    1.000
    C17      C        0.88070    0.67360    0.80560    1.000
    H12      H        0.89800    0.63460    0.85070    1.000
    C18      C        0.70810    0.67350    0.61200    1.000
    C19      C        0.15890    0.73610    0.76820    1.000
    H13      H        0.13290    0.78830    0.74210    1.000
    C20      C        0.22410    0.68400    0.72300    1.000
    H14      H        0.24120    0.70070    0.66770    1.000
    C21      C        0.26480    0.60620    0.75950    1.000
    C22      C        0.23480    0.58490    0.84220    1.000
    H15      H        0.25980    0.53310    0.86960    1.000
    C23      C        0.16740    0.64170    0.88300    1.000
    H16      H        0.14740    0.62630    0.93790    1.000
    C24      C        0.33340    0.54720    0.71250    1.000
    N14      N        0.92270    0.75720    0.80460    1.000
    N15      N        0.66190    0.59330    0.61250    1.000
    N16      N        0.60130    0.59450    0.54210    1.000
    N17      N        0.61200    0.67170    0.50190    1.000
    N18      N        0.67950    0.72320    0.54360    1.000
    N19      N        0.12990    0.71720    0.84730    1.000
    N20      N        0.37560    0.57600    0.63910    1.000
    N21      N        0.42850    0.50530    0.61380    1.000
    N22      N        0.41790    0.43660    0.66700    1.000
    N23      N        0.35820    0.46280    0.73110    1.000
    N24      N        0.41630    0.62400    0.44740    1.000
    N25      N        0.33040    0.63840    0.44390    1.000
    N26      N        0.24430    0.65330    0.44070    1.000
    Cu3      Cu       0.02147    0.79555    0.89894    1.000
    C25      C        0.39090    0.68880    0.24460    1.000
    H17      H        0.41610    0.62990    0.24560    1.000
    C26      C        0.32300    0.71100    0.17930    1.000
    H18      H        0.30480    0.66890    0.13710    1.000
    C27      C        0.28240    0.79670    0.17750    1.000
    C28      C        0.31440    0.85560    0.24340    1.000
    H19      H        0.29010    0.91480    0.24440    1.000
    C29      C        0.38070    0.82640    0.30560    1.000
    H20      H        0.39800    0.86540    0.35070    1.000
    C30      C        0.20810    0.82650    0.11200    1.000
    C31      C        0.65890    0.76390    0.26820    1.000
    H21      H        0.63290    0.71170    0.24210    1.000
    C32      C        0.72410    0.81600    0.22300    1.000
    H22      H        0.74120    0.79930    0.16770    1.000
    C33      C        0.76480    0.89380    0.25950    1.000
    C34      C        0.73480    0.91510    0.34220    1.000
    H23      H        0.75980    0.96690    0.36960    1.000
    C35      C        0.66740    0.85830    0.38300    1.000
    H24      H        0.64740    0.87370    0.43790    1.000
    C36      C        0.83340    0.95280    0.21250    1.000
    N27      N        0.42270    0.74280    0.30460    1.000
    N28      N        0.16190    0.90670    0.11250    1.000
    N29      N        0.10130    0.90550    0.04210    1.000
    N30      N        0.11200    0.82830    0.00190    1.000
    N31      N        0.17950    0.77680    0.04360    1.000
    N32      N        0.62990    0.78280    0.34730    1.000
    N33      N        0.87560    0.92400    0.13910    1.000
    N34      N        0.92850    0.99470    0.11380    1.000
    N35      N        0.91790    0.06340    0.16700    1.000
    N36      N        0.85820    0.03720    0.23110    1.000
    N37      N        0.91630    0.87600    0.94740    1.000
    N38      N        0.83040    0.86160    0.94390    1.000
    N39      N        0.74430    0.84670    0.94070    1.000
    Cu4      Cu       0.47853    0.29555    0.60106    1.000
    C37      C        0.10910    0.18880    0.25540    1.000
    H25      H        0.08390    0.12990    0.25440    1.000
    C38      C        0.17700    0.21100    0.32070    1.000
    H26      H        0.19520    0.16890    0.36290    1.000
    C39      C        0.21760    0.29670    0.32250    1.000
    C40      C        0.18560    0.35560    0.25660    1.000
    H27      H        0.20990    0.41480    0.25560    1.000
    C41      C        0.11930    0.32640    0.19440    1.000
    H28      H        0.10200    0.36540    0.14930    1.000
    C42      C        0.29190    0.32650    0.38800    1.000
    C43      C        0.84110    0.26390    0.23180    1.000
    H29      H        0.86710    0.21170    0.25790    1.000
    C44      C        0.77590    0.31600    0.27700    1.000
    H30      H        0.75880    0.29930    0.33230    1.000
    C45      C        0.73520    0.39380    0.24050    1.000
    C46      C        0.76520    0.41510    0.15780    1.000
    H31      H        0.74020    0.46690    0.13040    1.000
    C47      C        0.83260    0.35830    0.11700    1.000
    H32      H        0.85260    0.37370    0.06210    1.000
    C48      C        0.66660    0.45280    0.28750    1.000
    N40      N        0.07730    0.24280    0.19540    1.000
    N41      N        0.33810    0.40670    0.38750    1.000
    N42      N        0.39870    0.40550    0.45790    1.000
    N43      N        0.38800    0.32830    0.49810    1.000
    N44      N        0.32050    0.27680    0.45640    1.000
    N45      N        0.87010    0.28280    0.15270    1.000
    N46      N        0.62440    0.42400    0.36090    1.000
    N47      N        0.57150    0.49470    0.38620    1.000
    N48      N        0.58210    0.56340    0.33300    1.000
    N49      N        0.64180    0.53720    0.26890    1.000
    N50      N        0.58370    0.37600    0.55260    1.000
    N51      N        0.66960    0.36160    0.55610    1.000
    N52      N        0.75570    0.34670    0.55930    1.000
    Cu5      Cu       0.00000    0.00000    0.00000    1.000
    Cu6      Cu       0.50000    0.50000    0.50000    1.000
