# CIF file generated by openbabel 3.1.0, see https://openbabel.org
data_I
_chemical_name_common 'SIPVOD_clean'
_cell_length_a 5.459
_cell_length_b 26.5981
_cell_length_c 36.7601
_cell_angle_alpha 90
_cell_angle_beta 90
_cell_angle_gamma 91.406
_space_group_name_H-M_alt 'P 1'
_space_group_name_Hall 'P 1'
loop_
    _symmetry_equiv_pos_as_xyz
    x,y,z
loop_
    _atom_site_label
    _atom_site_type_symbol
    _atom_site_fract_x
    _atom_site_fract_y
    _atom_site_fract_z
    _atom_site_occupancy
    U1       U        0.89873    0.53673    0.06285    1.000
    U2       U        0.68471    0.61862    0.19080    1.000
    U3       U        0.44725    0.03806    0.09971    1.000
    U4       U        0.10127    0.96327    0.56285    1.000
    U5       U        0.31529    0.88138    0.69080    1.000
    U6       U        0.55275    0.46194    0.59971    1.000
    U7       U        0.10127    0.46327    0.93715    1.000
    U8       U        0.31529    0.38138    0.80920    1.000
    U9       U        0.55275    0.96194    0.90029    1.000
    U10      U        0.89873    0.03673    0.43715    1.000
    U11      U        0.68471    0.11862    0.30920    1.000
    U12      U        0.44725    0.53806    0.40029    1.000
    H1       H        0.91830    0.31030    0.17130    1.000
    H2       H        0.60050    0.57680    0.94140    1.000
    H3       H        0.19700    0.66610    0.00460    1.000
    H4       H        0.43740    0.65500    0.07360    1.000
    H5       H        0.65170    0.41000    0.13410    1.000
    H6       H        0.93320    0.75460    0.98610    1.000
    H7       H        0.41270    0.73540    0.98350    1.000
    H8       H        0.20140    0.50320    0.18490    1.000
    H9       H        0.75910    0.23930    0.19930    1.000
    H10      H        0.90290    0.82640    0.87170    1.000
    H11      H        0.27170    0.79860    0.13920    1.000
    H12      H        0.01660    0.72950    0.14370    1.000
    H13      H        0.17290    0.82470    0.97300    1.000
    H14      H        0.74500    0.81350    0.15430    1.000
    H15      H        0.46720    0.34260    0.16360    1.000
    H16      H        0.98390    0.88630    0.15790    1.000
    H17      H        0.16790    0.27010    0.28770    1.000
    H18      H        0.86210    0.91330    0.05260    1.000
    H19      H        0.29260    0.09620    0.05260    1.000
    H20      H        0.06630    0.06910    0.07100    1.000
    H21      H        0.81140    0.03380    0.14000    1.000
    H22      H        0.73320    0.97900    0.12840    1.000
    H23      H        0.36120    0.10120    0.14600    1.000
    H24      H        0.30930    0.04800    0.16300    1.000
    H25      H        0.75170    0.02550    0.05300    1.000
    H26      H        0.50900    0.99640    0.04240    1.000
    H27      H        0.08170    0.18970    0.67130    1.000
    H28      H        0.39950    0.92320    0.44140    1.000
    H29      H        0.80300    0.83390    0.50460    1.000
    H30      H        0.56260    0.84500    0.57360    1.000
    H31      H        0.34830    0.09000    0.63410    1.000
    H32      H        0.06680    0.74540    0.48610    1.000
    H33      H        0.58730    0.76460    0.48350    1.000
    H34      H        0.79860    0.99680    0.68490    1.000
    H35      H        0.24090    0.26070    0.69930    1.000
    H36      H        0.09710    0.67360    0.37170    1.000
    H37      H        0.72830    0.70140    0.63920    1.000
    H38      H        0.98340    0.77050    0.64370    1.000
    H39      H        0.82710    0.67530    0.47300    1.000
    H40      H        0.25500    0.68650    0.65430    1.000
    H41      H        0.53280    0.15740    0.66360    1.000
    H42      H        0.01610    0.61370    0.65790    1.000
    H43      H        0.83210    0.22990    0.78770    1.000
    H44      H        0.13790    0.58670    0.55260    1.000
    H45      H        0.70740    0.40380    0.55260    1.000
    H46      H        0.93370    0.43090    0.57100    1.000
    H47      H        0.18860    0.46620    0.64000    1.000
    H48      H        0.26680    0.52100    0.62840    1.000
    H49      H        0.63880    0.39880    0.64600    1.000
    H50      H        0.69070    0.45200    0.66300    1.000
    H51      H        0.24830    0.47450    0.55300    1.000
    H52      H        0.49100    0.50360    0.54240    1.000
    H53      H        0.08170    0.68970    0.82870    1.000
    H54      H        0.39950    0.42320    0.05860    1.000
    H55      H        0.80300    0.33390    0.99540    1.000
    H56      H        0.56260    0.34500    0.92640    1.000
    H57      H        0.34830    0.59000    0.86590    1.000
    H58      H        0.06680    0.24540    0.01390    1.000
    H59      H        0.58730    0.26460    0.01650    1.000
    H60      H        0.79860    0.49680    0.81510    1.000
    H61      H        0.24090    0.76070    0.80070    1.000
    H62      H        0.09710    0.17360    0.12830    1.000
    H63      H        0.72830    0.20140    0.86080    1.000
    H64      H        0.98340    0.27050    0.85630    1.000
    H65      H        0.82710    0.17530    0.02700    1.000
    H66      H        0.25500    0.18650    0.84570    1.000
    H67      H        0.53280    0.65740    0.83640    1.000
    H68      H        0.01610    0.11370    0.84210    1.000
    H69      H        0.83210    0.72990    0.71230    1.000
    H70      H        0.13790    0.08670    0.94740    1.000
    H71      H        0.70740    0.90380    0.94740    1.000
    H72      H        0.93370    0.93090    0.92900    1.000
    H73      H        0.18860    0.96620    0.86000    1.000
    H74      H        0.26680    0.02100    0.87160    1.000
    H75      H        0.63880    0.89880    0.85400    1.000
    H76      H        0.69070    0.95200    0.83700    1.000
    H77      H        0.24830    0.97450    0.94700    1.000
    H78      H        0.49100    0.00360    0.95760    1.000
    H79      H        0.91830    0.81030    0.32870    1.000
    H80      H        0.60050    0.07680    0.55860    1.000
    H81      H        0.19700    0.16610    0.49540    1.000
    H82      H        0.43740    0.15500    0.42640    1.000
    H83      H        0.65170    0.91000    0.36590    1.000
    H84      H        0.93320    0.25460    0.51390    1.000
    H85      H        0.41270    0.23540    0.51650    1.000
    H86      H        0.20140    0.00320    0.31510    1.000
    H87      H        0.75910    0.73930    0.30070    1.000
    H88      H        0.90290    0.32640    0.62830    1.000
    H89      H        0.27170    0.29860    0.36080    1.000
    H90      H        0.01660    0.22950    0.35630    1.000
    H91      H        0.17290    0.32470    0.52700    1.000
    H92      H        0.74500    0.31350    0.34570    1.000
    H93      H        0.46720    0.84260    0.33640    1.000
    H94      H        0.98390    0.38630    0.34210    1.000
    H95      H        0.16790    0.77010    0.21230    1.000
    H96      H        0.86210    0.41330    0.44740    1.000
    H97      H        0.29260    0.59620    0.44740    1.000
    H98      H        0.06630    0.56910    0.42900    1.000
    H99      H        0.81140    0.53380    0.36000    1.000
    H100     H        0.73320    0.47900    0.37160    1.000
    H101     H        0.36120    0.60120    0.35400    1.000
    H102     H        0.30930    0.54800    0.33700    1.000
    H103     H        0.75170    0.52550    0.44700    1.000
    H104     H        0.50900    0.49640    0.45760    1.000
    C1       C        0.96490    0.30290    0.19500    1.000
    C2       C        0.23010    0.56940    0.98700    1.000
    C3       C        0.03720    0.63970    0.11420    1.000
    C4       C        0.69010    0.65140    0.93770    1.000
    C5       C        0.63190    0.69990    0.94810    1.000
    C6       C        0.37440    0.61420    0.97480    1.000
    C7       C        0.45010    0.46360    0.15760    1.000
    C8       C        0.56110    0.60860    0.94990    1.000
    C9       C        0.12530    0.95110    0.10640    1.000
    C10      C        0.58220    0.50860    0.14150    1.000
    C11      C        0.54880    0.72720    0.08230    1.000
    C12      C        0.76110    0.77110    0.90330    1.000
    C13      C        0.32020    0.66220    0.98740    1.000
    C14      C        0.65350    0.81930    0.10160    1.000
    C15      C        0.20020    0.68490    0.10920    1.000
    C16      C        0.94800    0.24740    0.24580    1.000
    C17      C        0.40120    0.68410    0.08630    1.000
    C18      C        0.77140    0.74690    0.93720    1.000
    C19      C        0.23100    0.38130    0.19420    1.000
    C20      C        0.52670    0.41530    0.15080    1.000
    C21      C        0.50260    0.77140    0.10160    1.000
    C22      C        0.92690    0.76860    0.96290    1.000
    C23      C        0.95540    0.90600    0.10550    1.000
    C24      C        0.12750    0.33570    0.21320    1.000
    C25      C        0.44890    0.70380    0.97450    1.000
    C26      C        0.14990    0.43060    0.19890    1.000
    C27      C        0.19770    0.32190    0.24760    1.000
    C28      C        0.25830    0.47100    0.18110    1.000
    C29      C        0.87240    0.25980    0.21140    1.000
    C30      C        0.91010    0.81190    0.89470    1.000
    C31      C        0.30330    0.77030    0.12520    1.000
    C32      C        0.15250    0.72860    0.12840    1.000
    C33      C        0.07260    0.83140    0.92080    1.000
    C34      C        0.24190    0.87490    0.91280    1.000
    C35      C        0.07350    0.81060    0.95500    1.000
    C36      C        0.76690    0.83340    0.13370    1.000
    C37      C        0.41600    0.37500    0.16880    1.000
    C38      C        0.68650    0.85110    0.07200    1.000
    C39      C        0.91400    0.87690    0.13580    1.000
    C40      C        0.11500    0.27840    0.26450    1.000
    C41      C        0.83900    0.89350    0.07320    1.000
    C42      C        0.84500    0.20280    0.26620    1.000
    C43      C        0.03510    0.19710    0.69500    1.000
    C44      C        0.76990    0.93060    0.48700    1.000
    C45      C        0.96280    0.86030    0.61420    1.000
    C46      C        0.30990    0.84860    0.43770    1.000
    C47      C        0.36810    0.80010    0.44810    1.000
    C48      C        0.62560    0.88580    0.47480    1.000
    C49      C        0.54990    0.03640    0.65760    1.000
    C50      C        0.43890    0.89140    0.44990    1.000
    C51      C        0.87470    0.54890    0.60640    1.000
    C52      C        0.41780    0.99140    0.64150    1.000
    C53      C        0.45120    0.77280    0.58230    1.000
    C54      C        0.23890    0.72890    0.40330    1.000
    C55      C        0.67980    0.83780    0.48740    1.000
    C56      C        0.34650    0.68070    0.60160    1.000
    C57      C        0.79980    0.81510    0.60920    1.000
    C58      C        0.05200    0.25260    0.74580    1.000
    C59      C        0.59880    0.81590    0.58630    1.000
    C60      C        0.22860    0.75310    0.43720    1.000
    C61      C        0.76900    0.11870    0.69420    1.000
    C62      C        0.47330    0.08470    0.65080    1.000
    C63      C        0.49740    0.72860    0.60160    1.000
    C64      C        0.07310    0.73140    0.46290    1.000
    C65      C        0.04460    0.59400    0.60550    1.000
    C66      C        0.87250    0.16430    0.71320    1.000
    C67      C        0.55110    0.79620    0.47450    1.000
    C68      C        0.85010    0.06940    0.69890    1.000
    C69      C        0.80230    0.17810    0.74760    1.000
    C70      C        0.74170    0.02900    0.68110    1.000
    C71      C        0.12760    0.24020    0.71140    1.000
    C72      C        0.08990    0.68810    0.39470    1.000
    C73      C        0.69670    0.72970    0.62520    1.000
    C74      C        0.84750    0.77140    0.62840    1.000
    C75      C        0.92740    0.66860    0.42080    1.000
    C76      C        0.75810    0.62510    0.41280    1.000
    C77      C        0.92650    0.68940    0.45500    1.000
    C78      C        0.23310    0.66660    0.63370    1.000
    C79      C        0.58400    0.12500    0.66880    1.000
    C80      C        0.31350    0.64890    0.57200    1.000
    C81      C        0.08600    0.62310    0.63580    1.000
    C82      C        0.88500    0.22160    0.76450    1.000
    C83      C        0.16100    0.60650    0.57320    1.000
    C84      C        0.15500    0.29720    0.76620    1.000
    C85      C        0.03510    0.69710    0.80500    1.000
    C86      C        0.76990    0.43060    0.01300    1.000
    C87      C        0.96280    0.36030    0.88580    1.000
    C88      C        0.30990    0.34860    0.06230    1.000
    C89      C        0.36810    0.30010    0.05190    1.000
    C90      C        0.62560    0.38580    0.02520    1.000
    C91      C        0.54990    0.53640    0.84240    1.000
    C92      C        0.43890    0.39140    0.05010    1.000
    C93      C        0.87470    0.04890    0.89360    1.000
    C94      C        0.41780    0.49140    0.85850    1.000
    C95      C        0.45120    0.27280    0.91770    1.000
    C96      C        0.23890    0.22890    0.09670    1.000
    C97      C        0.67980    0.33780    0.01260    1.000
    C98      C        0.34650    0.18070    0.89840    1.000
    C99      C        0.79980    0.31510    0.89080    1.000
    C100     C        0.05200    0.75260    0.75420    1.000
    C101     C        0.59880    0.31590    0.91370    1.000
    C102     C        0.22860    0.25310    0.06280    1.000
    C103     C        0.76900    0.61870    0.80580    1.000
    C104     C        0.47330    0.58470    0.84920    1.000
    C105     C        0.49740    0.22860    0.89840    1.000
    C106     C        0.07310    0.23140    0.03710    1.000
    C107     C        0.04460    0.09400    0.89450    1.000
    C108     C        0.87250    0.66430    0.78680    1.000
    C109     C        0.55110    0.29620    0.02550    1.000
    C110     C        0.85010    0.56940    0.80110    1.000
    C111     C        0.80230    0.67810    0.75240    1.000
    C112     C        0.74170    0.52900    0.81890    1.000
    C113     C        0.12760    0.74020    0.78860    1.000
    C114     C        0.08990    0.18810    0.10530    1.000
    C115     C        0.69670    0.22970    0.87480    1.000
    C116     C        0.84750    0.27140    0.87160    1.000
    C117     C        0.92740    0.16860    0.07920    1.000
    C118     C        0.75810    0.12510    0.08720    1.000
    C119     C        0.92650    0.18940    0.04500    1.000
    C120     C        0.23310    0.16660    0.86630    1.000
    C121     C        0.58400    0.62500    0.83120    1.000
    C122     C        0.31350    0.14890    0.92800    1.000
    C123     C        0.08600    0.12310    0.86420    1.000
    C124     C        0.88500    0.72160    0.73550    1.000
    C125     C        0.16100    0.10650    0.92680    1.000
    C126     C        0.15500    0.79720    0.73380    1.000
    C127     C        0.96490    0.80290    0.30500    1.000
    C128     C        0.23010    0.06940    0.51300    1.000
    C129     C        0.03720    0.13970    0.38580    1.000
    C130     C        0.69010    0.15140    0.56230    1.000
    C131     C        0.63190    0.19990    0.55190    1.000
    C132     C        0.37440    0.11420    0.52520    1.000
    C133     C        0.45010    0.96360    0.34240    1.000
    C134     C        0.56110    0.10860    0.55010    1.000
    C135     C        0.12530    0.45110    0.39360    1.000
    C136     C        0.58220    0.00860    0.35850    1.000
    C137     C        0.54880    0.22720    0.41770    1.000
    C138     C        0.76110    0.27110    0.59670    1.000
    C139     C        0.32020    0.16220    0.51260    1.000
    C140     C        0.65350    0.31930    0.39840    1.000
    C141     C        0.20020    0.18490    0.39080    1.000
    C142     C        0.94800    0.74740    0.25420    1.000
    C143     C        0.40120    0.18410    0.41370    1.000
    C144     C        0.77140    0.24690    0.56280    1.000
    C145     C        0.23100    0.88130    0.30580    1.000
    C146     C        0.52670    0.91530    0.34920    1.000
    C147     C        0.50260    0.27140    0.39840    1.000
    C148     C        0.92690    0.26860    0.53710    1.000
    C149     C        0.95540    0.40600    0.39450    1.000
    C150     C        0.12750    0.83570    0.28680    1.000
    C151     C        0.44890    0.20380    0.52550    1.000
    C152     C        0.14990    0.93060    0.30110    1.000
    C153     C        0.19770    0.82190    0.25240    1.000
    C154     C        0.25830    0.97100    0.31890    1.000
    C155     C        0.87240    0.75980    0.28860    1.000
    C156     C        0.91010    0.31190    0.60530    1.000
    C157     C        0.30330    0.27030    0.37480    1.000
    C158     C        0.15250    0.22860    0.37160    1.000
    C159     C        0.07260    0.33140    0.57920    1.000
    C160     C        0.24190    0.37490    0.58720    1.000
    C161     C        0.07350    0.31060    0.54500    1.000
    C162     C        0.76690    0.33340    0.36630    1.000
    C163     C        0.41600    0.87500    0.33120    1.000
    C164     C        0.68650    0.35110    0.42800    1.000
    C165     C        0.91400    0.37690    0.36420    1.000
    C166     C        0.11500    0.77840    0.23550    1.000
    C167     C        0.83900    0.39350    0.42680    1.000
    C168     C        0.84500    0.70280    0.23380    1.000
    N1       N        0.88920    0.64230    0.91140    1.000
    N2       N        0.75950    0.72270    0.05780    1.000
    N3       N        0.58780    0.75400    0.87530    1.000
    N4       N        0.95100    0.44090    0.22400    1.000
    N5       N        0.55900    0.84190    0.03730    1.000
    N6       N        0.36500    0.35360    0.26920    1.000
    N7       N        0.11080    0.85770    0.41140    1.000
    N8       N        0.24050    0.77730    0.55780    1.000
    N9       N        0.41220    0.74600    0.37530    1.000
    N10      N        0.04900    0.05910    0.72400    1.000
    N11      N        0.44100    0.65810    0.53730    1.000
    N12      N        0.63500    0.14640    0.76920    1.000
    N13      N        0.11080    0.35770    0.08860    1.000
    N14      N        0.24050    0.27730    0.94220    1.000
    N15      N        0.41220    0.24600    0.12470    1.000
    N16      N        0.04900    0.55910    0.77600    1.000
    N17      N        0.44100    0.15810    0.96270    1.000
    N18      N        0.63500    0.64640    0.73080    1.000
    N19      N        0.88920    0.14230    0.58860    1.000
    N20      N        0.75950    0.22270    0.44220    1.000
    N21      N        0.58780    0.25400    0.62470    1.000
    N22      N        0.95100    0.94090    0.27600    1.000
    N23      N        0.55900    0.34190    0.46270    1.000
    N24      N        0.36500    0.85360    0.23080    1.000
    O1       O        0.07400    0.57480    0.01190    1.000
    O2       O        0.08390    0.60110    0.09555    1.000
    O3       O        0.72250    0.50160    0.11495    1.000
    O4       O        0.55080    0.55020    0.15577    1.000
    O5       O        0.20200    0.96740    0.07750    1.000
    O6       O        0.86050    0.64190    0.13607    1.000
    O7       O        0.98380    0.60160    0.91200    1.000
    O8       O        0.89030    0.75980    0.05250    1.000
    O9       O        0.79900    0.68240    0.04410    1.000
    O10      O        0.94650    0.67510    0.89020    1.000
    O11      O        0.41710    0.72670    0.88410    1.000
    O12      O        0.62610    0.76750    0.84410    1.000
    O13      O        0.32600    0.90040    0.93760    1.000
    O14      O        0.38700    0.81370    0.03690    1.000
    O15      O        0.19600    0.97120    0.13350    1.000
    O16      O        0.83800    0.40940    0.23700    1.000
    O17      O        0.34700    0.39740    0.26770    1.000
    O18      O        0.88490    0.19910    0.29987    1.000
    O19      O        0.72490    0.16830    0.25049    1.000
    O20      O        0.63500    0.86250    0.01050    1.000
    O21      O        0.87400    0.48040    0.22630    1.000
    O22      O        0.48400    0.33850    0.29050    1.000
    O23      O        0.29920    0.88600    0.88160    1.000
    O24      O        0.26850    0.52770    0.97171    1.000
    O25      O        0.22800    0.06460    0.06130    1.000
    O26      O        0.67500    0.01080    0.13670    1.000
    O27      O        0.29000    0.06830    0.14170    1.000
    O28      O        0.62100    0.00410    0.06190    1.000
    O29      O        0.92600    0.92520    0.51190    1.000
    O30      O        0.91610    0.89890    0.59555    1.000
    O31      O        0.27750    0.99840    0.61495    1.000
    O32      O        0.44920    0.94980    0.65577    1.000
    O33      O        0.79800    0.53260    0.57750    1.000
    O34      O        0.13950    0.85810    0.63607    1.000
    O35      O        0.01620    0.89840    0.41200    1.000
    O36      O        0.10970    0.74020    0.55250    1.000
    O37      O        0.20100    0.81760    0.54410    1.000
    O38      O        0.05350    0.82490    0.39020    1.000
    O39      O        0.58290    0.77330    0.38410    1.000
    O40      O        0.37390    0.73250    0.34410    1.000
    O41      O        0.67400    0.59960    0.43760    1.000
    O42      O        0.61300    0.68630    0.53690    1.000
    O43      O        0.80400    0.52880    0.63350    1.000
    O44      O        0.16200    0.09060    0.73700    1.000
    O45      O        0.65300    0.10260    0.76770    1.000
    O46      O        0.11510    0.30090    0.79987    1.000
    O47      O        0.27510    0.33170    0.75049    1.000
    O48      O        0.36500    0.63750    0.51050    1.000
    O49      O        0.12600    0.01960    0.72630    1.000
    O50      O        0.51600    0.16150    0.79050    1.000
    O51      O        0.70080    0.61400    0.38160    1.000
    O52      O        0.73150    0.97230    0.47171    1.000
    O53      O        0.77200    0.43540    0.56130    1.000
    O54      O        0.32500    0.48920    0.63670    1.000
    O55      O        0.71000    0.43170    0.64170    1.000
    O56      O        0.37900    0.49590    0.56190    1.000
    O57      O        0.92600    0.42520    0.98810    1.000
    O58      O        0.91610    0.39890    0.90445    1.000
    O59      O        0.27750    0.49840    0.88505    1.000
    O60      O        0.44920    0.44980    0.84423    1.000
    O61      O        0.79800    0.03260    0.92250    1.000
    O62      O        0.13950    0.35810    0.86393    1.000
    O63      O        0.01620    0.39840    0.08800    1.000
    O64      O        0.10970    0.24020    0.94750    1.000
    O65      O        0.20100    0.31760    0.95590    1.000
    O66      O        0.05350    0.32490    0.10980    1.000
    O67      O        0.58290    0.27330    0.11590    1.000
    O68      O        0.37390    0.23250    0.15590    1.000
    O69      O        0.67400    0.09960    0.06240    1.000
    O70      O        0.61300    0.18630    0.96310    1.000
    O71      O        0.80400    0.02880    0.86650    1.000
    O72      O        0.16200    0.59060    0.76300    1.000
    O73      O        0.65300    0.60260    0.73230    1.000
    O74      O        0.11510    0.80090    0.70013    1.000
    O75      O        0.27510    0.83170    0.74951    1.000
    O76      O        0.36500    0.13750    0.98950    1.000
    O77      O        0.12600    0.51960    0.77370    1.000
    O78      O        0.51600    0.66150    0.70950    1.000
    O79      O        0.70080    0.11400    0.11840    1.000
    O80      O        0.73150    0.47230    0.02829    1.000
    O81      O        0.77200    0.93540    0.93870    1.000
    O82      O        0.32500    0.98920    0.86330    1.000
    O83      O        0.71000    0.93170    0.85830    1.000
    O84      O        0.37900    0.99590    0.93810    1.000
    O85      O        0.07400    0.07480    0.48810    1.000
    O86      O        0.08390    0.10110    0.40445    1.000
    O87      O        0.72250    0.00160    0.38505    1.000
    O88      O        0.55080    0.05020    0.34423    1.000
    O89      O        0.20200    0.46740    0.42250    1.000
    O90      O        0.86050    0.14190    0.36393    1.000
    O91      O        0.98380    0.10160    0.58800    1.000
    O92      O        0.89030    0.25980    0.44750    1.000
    O93      O        0.79900    0.18240    0.45590    1.000
    O94      O        0.94650    0.17510    0.60980    1.000
    O95      O        0.41710    0.22670    0.61590    1.000
    O96      O        0.62610    0.26750    0.65590    1.000
    O97      O        0.32600    0.40040    0.56240    1.000
    O98      O        0.38700    0.31370    0.46310    1.000
    O99      O        0.19600    0.47120    0.36650    1.000
    O100     O        0.83800    0.90940    0.26300    1.000
    O101     O        0.34700    0.89740    0.23230    1.000
    O102     O        0.88490    0.69910    0.20013    1.000
    O103     O        0.72490    0.66830    0.24951    1.000
    O104     O        0.63500    0.36250    0.48950    1.000
    O105     O        0.87400    0.98040    0.27370    1.000
    O106     O        0.48400    0.83850    0.20950    1.000
    O107     O        0.29920    0.38600    0.61840    1.000
    O108     O        0.26850    0.02770    0.52829    1.000
    O109     O        0.22800    0.56460    0.43870    1.000
    O110     O        0.67500    0.51080    0.36330    1.000
    O111     O        0.29000    0.56830    0.35830    1.000
    O112     O        0.62100    0.50410    0.43810    1.000
