# CIF file generated by openbabel 3.1.0, see https://openbabel.org
data_I
_chemical_name_common 'NASMIF_clean'
_cell_length_a 10.148
_cell_length_b 10.8845
_cell_length_c 13.8261
_cell_angle_alpha 78.76
_cell_angle_beta 79.305
_cell_angle_gamma 86.222
_space_group_name_H-M_alt 'P 1'
_space_group_name_Hall 'P 1'
loop_
    _symmetry_equiv_pos_as_xyz
    x,y,z
loop_
    _atom_site_label
    _atom_site_type_symbol
    _atom_site_fract_x
    _atom_site_fract_y
    _atom_site_fract_z
    _atom_site_occupancy
    Gd1      Gd       0.67955    0.07683    0.20374    1.000
    Gd2      Gd       0.32045    0.92317    0.79626    1.000
    Mn1      Mn       0.00000    0.50000    0.00000    1.000
    H1       H        0.65280    0.66890    0.42250    1.000
    H2       H        0.67180    0.33060    0.34730    1.000
    H3       H        0.71590    0.63970    0.13280    1.000
    H4       H        0.64440    0.54430    0.75390    1.000
    H5       H        0.63430    0.42750    0.91110    1.000
    H6       H        0.64810    0.11850    0.80900    1.000
    H7       H        0.65490    0.22560    0.64930    1.000
    H8       H        0.17490    0.08560    0.21940    1.000
    H9       H        0.91310    0.15880    0.45860    1.000
    H10      H        0.30660    0.14850    0.46140    1.000
    H11      H        0.98990    0.51920    0.62640    1.000
    H12      H        0.98280    0.58780    0.77260    1.000
    H13      H        0.96910    0.24760    0.92390    1.000
    H14      H        0.98700    0.16730    0.78020    1.000
    H15      H        0.62100    0.35380    0.51700    1.000
    H16      H        0.12420    0.15840    0.61570    1.000
    H17      H        0.34720    0.33110    0.57750    1.000
    H18      H        0.32820    0.66940    0.65270    1.000
    H19      H        0.28410    0.36030    0.86720    1.000
    H20      H        0.35560    0.45570    0.24610    1.000
    H21      H        0.36570    0.57250    0.08890    1.000
    H22      H        0.35190    0.88150    0.19100    1.000
    H23      H        0.34510    0.77440    0.35070    1.000
    H24      H        0.82510    0.91440    0.78060    1.000
    H25      H        0.08690    0.84120    0.54140    1.000
    H26      H        0.69340    0.85150    0.53860    1.000
    H27      H        0.01010    0.48080    0.37360    1.000
    H28      H        0.01720    0.41220    0.22740    1.000
    H29      H        0.03090    0.75240    0.07610    1.000
    H30      H        0.01300    0.83270    0.21980    1.000
    H31      H        0.37900    0.64620    0.48300    1.000
    H32      H        0.87580    0.84160    0.38430    1.000
    C1       C        0.68610    0.81340    0.24720    1.000
    C2       C        0.68340    0.67450    0.27320    1.000
    C3       C        0.66460    0.61920    0.37380    1.000
    C4       C        0.66310    0.49000    0.40180    1.000
    C5       C        0.67720    0.41720    0.32870    1.000
    C6       C        0.69930    0.47220    0.22760    1.000
    C7       C        0.70180    0.60200    0.20020    1.000
    C8       C        0.72900    0.39450    0.14820    1.000
    C9       C        0.66680    0.48110    0.57990    1.000
    C10      C        0.65300    0.39890    0.68200    1.000
    C11      C        0.64540    0.45730    0.76310    1.000
    C12      C        0.63940    0.38650    0.85740    1.000
    C13      C        0.64700    0.20560    0.79760    1.000
    C14      C        0.65210    0.26910    0.70130    1.000
    C15      C        0.40550    0.09770    0.28480    1.000
    C16      C        0.26230    0.11340    0.33210    1.000
    C17      C        0.15790    0.10280    0.28400    1.000
    C18      C        0.02620    0.11800    0.33250    1.000
    C19      C        0.00100    0.14780    0.42690    1.000
    C20      C        0.10600    0.16140    0.47430    1.000
    C21      C        0.23600    0.14220    0.42840    1.000
    C22      C        0.90850    0.10630    0.28390    1.000
    C23      C        0.99590    0.29260    0.58930    1.000
    C24      C        0.99190    0.33490    0.68660    1.000
    C25      C        0.98850    0.46180    0.68600    1.000
    C26      C        0.98310    0.50200    0.77420    1.000
    C27      C        0.97660    0.30280    0.86270    1.000
    C28      C        0.98540    0.25350    0.77700    1.000
    C29      C        0.31390    0.18660    0.75280    1.000
    C30      C        0.31660    0.32550    0.72680    1.000
    C31      C        0.33540    0.38080    0.62620    1.000
    C32      C        0.33690    0.51000    0.59820    1.000
    C33      C        0.32280    0.58280    0.67130    1.000
    C34      C        0.30070    0.52780    0.77240    1.000
    C35      C        0.29820    0.39800    0.79980    1.000
    C36      C        0.27100    0.60550    0.85180    1.000
    C37      C        0.33320    0.51890    0.42010    1.000
    C38      C        0.34700    0.60110    0.31800    1.000
    C39      C        0.35460    0.54270    0.23690    1.000
    C40      C        0.36060    0.61350    0.14260    1.000
    C41      C        0.35300    0.79440    0.20240    1.000
    C42      C        0.34790    0.73090    0.29870    1.000
    C43      C        0.59450    0.90230    0.71520    1.000
    C44      C        0.73770    0.88660    0.66790    1.000
    C45      C        0.84210    0.89720    0.71600    1.000
    C46      C        0.97380    0.88200    0.66750    1.000
    C47      C        0.99900    0.85220    0.57310    1.000
    C48      C        0.89400    0.83860    0.52570    1.000
    C49      C        0.76400    0.85780    0.57160    1.000
    C50      C        0.09150    0.89370    0.71610    1.000
    C51      C        0.00410    0.70740    0.41070    1.000
    C52      C        0.00810    0.66510    0.31340    1.000
    C53      C        0.01150    0.53820    0.31400    1.000
    C54      C        0.01690    0.49800    0.22580    1.000
    C55      C        0.02340    0.69720    0.13730    1.000
    C56      C        0.01460    0.74650    0.22300    1.000
    N1       N        0.64650    0.43000    0.50310    1.000
    N2       N        0.64060    0.26110    0.87570    1.000
    N3       N        0.08230    0.19780    0.56960    1.000
    N4       N        0.97810    0.42500    0.86280    1.000
    N5       N        0.35350    0.57000    0.49690    1.000
    N6       N        0.35940    0.73890    0.12430    1.000
    N7       N        0.91770    0.80220    0.43040    1.000
    N8       N        0.02190    0.57500    0.13720    1.000
    O1       O        0.67290    0.86950    0.16110    1.000
    O2       O        0.70410    0.87490    0.31070    1.000
    O3       O        0.80050    0.43740    0.06690    1.000
    O4       O        0.67840    0.28760    0.16700    1.000
    O5       O        0.69440    0.58910    0.57100    1.000
    O6       O        0.43860    0.09740    0.19240    1.000
    O7       O        0.49600    0.08580    0.33730    1.000
    O8       O        0.92530    0.09320    0.19290    1.000
    O9       O        0.79210    0.11120    0.33370    1.000
    O10      O        0.92450    0.34750    0.53060    1.000
    O11      O        0.32710    0.13050    0.83890    1.000
    O12      O        0.29590    0.12510    0.68930    1.000
    O13      O        0.19950    0.56260    0.93310    1.000
    O14      O        0.32160    0.71240    0.83300    1.000
    O15      O        0.30560    0.41090    0.42900    1.000
    O16      O        0.56140    0.90260    0.80760    1.000
    O17      O        0.50400    0.91420    0.66270    1.000
    O18      O        0.07470    0.90680    0.80710    1.000
    O19      O        0.20790    0.88880    0.66630    1.000
    O20      O        0.07550    0.65250    0.46940    1.000
