# CIF file generated by openbabel 3.1.0, see https://openbabel.org
data_I
_chemical_name_common 'image0'
_cell_length_a 7.5292
_cell_length_b 14.0999
_cell_length_c 16.591
_cell_angle_alpha 90
_cell_angle_beta 95.74
_cell_angle_gamma 90
_space_group_name_H-M_alt 'P 1'
_space_group_name_Hall 'P 1'
loop_
    _symmetry_equiv_pos_as_xyz
    x,y,z
loop_
    _atom_site_label
    _atom_site_type_symbol
    _atom_site_fract_x
    _atom_site_fract_y
    _atom_site_fract_z
    _atom_site_occupancy
    Be1      Be       0.39040    0.89110    0.42750    1.000
    Be2      Be       0.37570    0.61800    0.44680    1.000
    Be3      Be       0.38630    0.75060    0.13510    1.000
    P1       P        0.29514    0.08948    0.44558    1.000
    P2       P        0.21684    0.76350    0.53619    1.000
    P3       P        0.47216    0.74249    0.31664    1.000
    P4       P        0.72750    0.58995    0.54088    1.000
    O1       O        0.27760    0.17456    0.38842    1.000
    O2       O        0.10780    0.07067    0.47762    1.000
    H1       H        0.04100    0.11540    0.46530    1.000
    O3       O        0.42300    0.10822    0.51863    1.000
    O4       O        0.33900    0.00051    0.39900    1.000
    O5       O        0.23510    0.84527    0.47783    1.000
    O6       O        0.40370    0.83821    0.34243    1.000
    O7       O        0.04230    0.77533    0.57441    1.000
    O8       O        0.36660    0.77046    0.60948    1.000
    H2       H        0.46010    0.78840    0.59300    1.000
    O9       O        0.22110    0.66646    0.49614    1.000
    O10      O        0.46280    0.73548    0.22614    1.000
    O11      O        0.67820    0.73342    0.34743    1.000
    H3       H        0.68930    0.70780    0.39200    1.000
    O12      O        0.37500    0.66023    0.35394    1.000
    O13      O        0.57110    0.64180    0.49567    1.000
    O14      O        0.80820    0.64219    0.61662    1.000
    O15      O        0.67790    0.49122    0.56478    1.000
    O16      O        0.87370    0.58470    0.47867    1.000
    H4       H        0.96310    0.61380    0.49700    1.000
    Be4      Be       0.10960    0.39110    0.07250    1.000
    Be5      Be       0.12430    0.11800    0.05320    1.000
    Be6      Be       0.11370    0.25060    0.36490    1.000
    P5       P        0.20486    0.58948    0.05442    1.000
    P6       P        0.28316    0.26350    0.96381    1.000
    P7       P        0.02784    0.24249    0.18336    1.000
    P8       P        0.77250    0.08995    0.95912    1.000
    O17      O        0.22240    0.67456    0.11158    1.000
    O18      O        0.39220    0.57067    0.02238    1.000
    H5       H        0.45900    0.61540    0.03470    1.000
    O19      O        0.07700    0.60822    0.98137    1.000
    O20      O        0.16100    0.50051    0.10100    1.000
    O21      O        0.26490    0.34527    0.02217    1.000
    O22      O        0.09630    0.33821    0.15757    1.000
    O23      O        0.45770    0.27533    0.92559    1.000
    O24      O        0.13340    0.27046    0.89052    1.000
    H6       H        0.03990    0.28840    0.90700    1.000
    O25      O        0.27890    0.16646    0.00386    1.000
    O26      O        0.03720    0.23548    0.27386    1.000
    O27      O        0.82180    0.23342    0.15257    1.000
    H7       H        0.81070    0.20780    0.10800    1.000
    O28      O        0.12500    0.16023    0.14606    1.000
    O29      O        0.92890    0.14180    0.00433    1.000
    O30      O        0.69180    0.14219    0.88338    1.000
    O31      O        0.82210    0.99122    0.93522    1.000
    O32      O        0.62630    0.08470    0.02133    1.000
    H8       H        0.53690    0.11380    0.00300    1.000
    Be7      Be       0.60960    0.10890    0.57250    1.000
    Be8      Be       0.62430    0.38200    0.55320    1.000
    Be9      Be       0.61370    0.24940    0.86490    1.000
    P9       P        0.70486    0.91052    0.55442    1.000
    P10      P        0.78316    0.23650    0.46381    1.000
    P11      P        0.52784    0.25751    0.68336    1.000
    P12      P        0.27250    0.41005    0.45912    1.000
    O33      O        0.72240    0.82544    0.61158    1.000
    O34      O        0.89220    0.92933    0.52238    1.000
    H9       H        0.95900    0.88460    0.53470    1.000
    O35      O        0.57700    0.89178    0.48137    1.000
    O36      O        0.66100    0.99949    0.60100    1.000
    O37      O        0.76490    0.15473    0.52217    1.000
    O38      O        0.59630    0.16179    0.65757    1.000
    O39      O        0.95770    0.22467    0.42559    1.000
    O40      O        0.63340    0.22954    0.39052    1.000
    H10      H        0.53990    0.21160    0.40700    1.000
    O41      O        0.77890    0.33354    0.50386    1.000
    O42      O        0.53720    0.26452    0.77386    1.000
    O43      O        0.32180    0.26658    0.65257    1.000
    H11      H        0.31070    0.29220    0.60800    1.000
    O44      O        0.62500    0.33977    0.64606    1.000
    O45      O        0.42890    0.35820    0.50433    1.000
    O46      O        0.19180    0.35781    0.38338    1.000
    O47      O        0.32210    0.50878    0.43522    1.000
    O48      O        0.12630    0.41530    0.52133    1.000
    H12      H        0.03690    0.38620    0.50300    1.000
    Be10     Be       0.89040    0.60890    0.92750    1.000
    Be11     Be       0.87570    0.88200    0.94680    1.000
    Be12     Be       0.88630    0.74940    0.63510    1.000
    P13      P        0.79514    0.41052    0.94558    1.000
    P14      P        0.71684    0.73650    0.03619    1.000
    P15      P        0.97216    0.75751    0.81664    1.000
    P16      P        0.22750    0.91005    0.04088    1.000
    O49      O        0.77760    0.32544    0.88842    1.000
    O50      O        0.60780    0.42933    0.97762    1.000
    H13      H        0.54100    0.38460    0.96530    1.000
    O51      O        0.92300    0.39178    0.01863    1.000
    O52      O        0.83900    0.49949    0.89900    1.000
    O53      O        0.73510    0.65473    0.97783    1.000
    O54      O        0.90370    0.66179    0.84243    1.000
    O55      O        0.54230    0.72467    0.07441    1.000
    O56      O        0.86660    0.72954    0.10948    1.000
    H14      H        0.96010    0.71160    0.09300    1.000
    O57      O        0.72110    0.83354    0.99614    1.000
    O58      O        0.96280    0.76452    0.72614    1.000
    O59      O        0.17820    0.76658    0.84743    1.000
    H15      H        0.18930    0.79220    0.89200    1.000
    O60      O        0.87500    0.83977    0.85394    1.000
    O61      O        0.07110    0.85820    0.99567    1.000
    O62      O        0.30820    0.85781    0.11662    1.000
    O63      O        0.17790    0.00878    0.06478    1.000
    O64      O        0.37370    0.91530    0.97867    1.000
    H16      H        0.46310    0.88620    0.99700    1.000
