# CIF file generated by openbabel 3.1.0, see https://openbabel.org
data_I
_chemical_name_common 'image0'
_cell_length_a 20.608
_cell_length_b 20.608
_cell_length_c 22.35
_cell_angle_alpha 90
_cell_angle_beta 90
_cell_angle_gamma 90
_space_group_name_H-M_alt 'P 1'
_space_group_name_Hall 'P 1'
loop_
    _symmetry_equiv_pos_as_xyz
    x,y,z
loop_
    _atom_site_label
    _atom_site_type_symbol
    _atom_site_fract_x
    _atom_site_fract_y
    _atom_site_fract_z
    _atom_site_occupancy
    Cd1      Cd       0.71886    0.20871    0.11437    1.000
    N1       N        0.61340    0.19860    0.14970    1.000
    N2       N        0.81530    0.23990    0.07130    1.000
    N3       N        0.67630    0.21870    0.01660    1.000
    C1       C        0.59790    0.15080    0.18620    1.000
    C2       C        0.56690    0.24160    0.13240    1.000
    H1       H        0.63040    0.12070    0.19800    1.000
    C3       C        0.53460    0.14340    0.20770    1.000
    C4       C        0.50510    0.23790    0.15180    1.000
    H2       H        0.57840    0.27550    0.10570    1.000
    C5       C        0.52030    0.08810    0.24800    1.000
    C6       C        0.48800    0.18710    0.19130    1.000
    H3       H        0.47370    0.26880    0.13910    1.000
    O1       O        0.46320    0.08740    0.27030    1.000
    O2       O        0.56320    0.04810    0.25730    1.000
    H4       H        0.44490    0.18350    0.20610    1.000
    Cr1      Cr       0.42236    0.01945    0.31920    1.000
    O3       O        0.37040    0.95450    0.36170    1.000
    O4       O        0.39580    0.08960    0.37420    1.000
    C7       C        0.37310    0.93900    0.41620    1.000
    C8       C        0.42040    0.11360    0.42100    1.000
    O5       O        0.53630    0.91210    0.45300    1.000
    O6       O        0.41370    0.95880    0.45400    1.000
    C9       C        0.32200    0.89220    0.43730    1.000
    C10      C        0.39540    0.17720    0.44100    1.000
    C11      C        0.32500    0.86710    0.49440    1.000
    C12      C        0.27250    0.87320    0.39980    1.000
    C13      C        0.34290    0.20470    0.41110    1.000
    C14      C        0.42290    0.21030    0.49000    1.000
    H5       H        0.35960    0.88070    0.51960    1.000
    C15      C        0.22590    0.83070    0.42260    1.000
    H6       H        0.27020    0.88850    0.35980    1.000
    H7       H        0.32610    0.18320    0.37680    1.000
    C16      C        0.39330    0.26800    0.50710    1.000
    H8       H        0.46000    0.19400    0.51030    1.000
    C17      C        0.23380    0.80630    0.48030    1.000
    H9       H        0.18940    0.81850    0.39920    1.000
    C18      C        0.34270    0.29160    0.47580    1.000
    H10      H        0.40890    0.29080    0.54110    1.000
    H11      H        0.20320    0.77530    0.49430    1.000
    H12      H        0.32520    0.33240    0.48730    1.000
    Cd2      Cd       0.28114    0.79129    0.11437    1.000
    N4       N        0.38660    0.80140    0.14970    1.000
    N5       N        0.18470    0.76010    0.07130    1.000
    N6       N        0.32370    0.78130    0.01660    1.000
    C19      C        0.40210    0.84920    0.18620    1.000
    C20      C        0.43310    0.75840    0.13240    1.000
    H13      H        0.36960    0.87930    0.19800    1.000
    C21      C        0.46540    0.85660    0.20770    1.000
    C22      C        0.49490    0.76210    0.15180    1.000
    H14      H        0.42160    0.72450    0.10570    1.000
    C23      C        0.47970    0.91190    0.24800    1.000
    C24      C        0.51200    0.81290    0.19130    1.000
    H15      H        0.52630    0.73120    0.13910    1.000
    O7       O        0.53680    0.91260    0.27030    1.000
    O8       O        0.43680    0.95190    0.25730    1.000
    H16      H        0.55510    0.81650    0.20610    1.000
    Cr2      Cr       0.57764    0.98055    0.31920    1.000
    O9       O        0.62960    0.04550    0.36170    1.000
    O10      O        0.60420    0.91040    0.37420    1.000
    C25      C        0.62690    0.06100    0.41620    1.000
    C26      C        0.57960    0.88640    0.42100    1.000
    O11      O        0.46370    0.08790    0.45300    1.000
    O12      O        0.58630    0.04120    0.45400    1.000
    C27      C        0.67800    0.10780    0.43730    1.000
    C28      C        0.60460    0.82280    0.44100    1.000
    C29      C        0.67500    0.13290    0.49440    1.000
    C30      C        0.72750    0.12680    0.39980    1.000
    C31      C        0.65710    0.79530    0.41110    1.000
    C32      C        0.57710    0.78970    0.49000    1.000
    H17      H        0.64040    0.11930    0.51960    1.000
    C33      C        0.77410    0.16930    0.42260    1.000
    H18      H        0.72980    0.11150    0.35980    1.000
    H19      H        0.67390    0.81680    0.37680    1.000
    C34      C        0.60670    0.73200    0.50710    1.000
    H20      H        0.54000    0.80600    0.51030    1.000
    C35      C        0.76620    0.19370    0.48030    1.000
    H21      H        0.81060    0.18150    0.39920    1.000
    C36      C        0.65730    0.70840    0.47580    1.000
    H22      H        0.59110    0.70920    0.54110    1.000
    H23      H        0.79680    0.22470    0.49430    1.000
    H24      H        0.67480    0.66760    0.48730    1.000
    Cd3      Cd       0.20871    0.28114    0.88563    1.000
    N7       N        0.19860    0.38660    0.85030    1.000
    N8       N        0.23990    0.18470    0.92870    1.000
    N9       N        0.21870    0.32370    0.98340    1.000
    C37      C        0.15080    0.40210    0.81380    1.000
    C38      C        0.24160    0.43310    0.86760    1.000
    H25      H        0.12070    0.36960    0.80200    1.000
    C39      C        0.14340    0.46540    0.79230    1.000
    C40      C        0.23790    0.49490    0.84820    1.000
    H26      H        0.27550    0.42160    0.89430    1.000
    C41      C        0.08810    0.47970    0.75200    1.000
    C42      C        0.18710    0.51200    0.80870    1.000
    H27      H        0.26880    0.52630    0.86090    1.000
    O13      O        0.08740    0.53680    0.72970    1.000
    O14      O        0.04810    0.43680    0.74270    1.000
    H28      H        0.18350    0.55510    0.79390    1.000
    Cr3      Cr       0.01945    0.57764    0.68080    1.000
    O15      O        0.95450    0.62960    0.63830    1.000
    O16      O        0.08960    0.60420    0.62580    1.000
    C43      C        0.93900    0.62690    0.58380    1.000
    C44      C        0.11360    0.57960    0.57900    1.000
    O17      O        0.91210    0.46370    0.54700    1.000
    O18      O        0.95880    0.58630    0.54600    1.000
    C45      C        0.89220    0.67800    0.56270    1.000
    C46      C        0.17720    0.60460    0.55900    1.000
    C47      C        0.86710    0.67500    0.50560    1.000
    C48      C        0.87320    0.72750    0.60020    1.000
    C49      C        0.20470    0.65710    0.58890    1.000
    C50      C        0.21030    0.57710    0.51000    1.000
    H29      H        0.88070    0.64040    0.48040    1.000
    C51      C        0.83070    0.77410    0.57740    1.000
    H30      H        0.88850    0.72980    0.64020    1.000
    H31      H        0.18320    0.67390    0.62320    1.000
    C52      C        0.26800    0.60670    0.49290    1.000
    H32      H        0.19400    0.54000    0.48970    1.000
    C53      C        0.80630    0.76620    0.51970    1.000
    H33      H        0.81850    0.81060    0.60080    1.000
    C54      C        0.29160    0.65730    0.52420    1.000
    H34      H        0.29080    0.59110    0.45890    1.000
    H35      H        0.77530    0.79680    0.50570    1.000
    H36      H        0.33240    0.67480    0.51270    1.000
    Cd4      Cd       0.79129    0.71886    0.88563    1.000
    N10      N        0.80140    0.61340    0.85030    1.000
    N11      N        0.76010    0.81530    0.92870    1.000
    N12      N        0.78130    0.67630    0.98340    1.000
    C55      C        0.84920    0.59790    0.81380    1.000
    C56      C        0.75840    0.56690    0.86760    1.000
    H37      H        0.87930    0.63040    0.80200    1.000
    C57      C        0.85660    0.53460    0.79230    1.000
    C58      C        0.76210    0.50510    0.84820    1.000
    H38      H        0.72450    0.57840    0.89430    1.000
    C59      C        0.91190    0.52030    0.75200    1.000
    C60      C        0.81290    0.48800    0.80870    1.000
    H39      H        0.73120    0.47370    0.86090    1.000
    O19      O        0.91260    0.46320    0.72970    1.000
    O20      O        0.95190    0.56320    0.74270    1.000
    H40      H        0.81650    0.44490    0.79390    1.000
    Cr4      Cr       0.98055    0.42236    0.68080    1.000
    O21      O        0.04550    0.37040    0.63830    1.000
    O22      O        0.91040    0.39580    0.62580    1.000
    C61      C        0.06100    0.37310    0.58380    1.000
    C62      C        0.88640    0.42040    0.57900    1.000
    O23      O        0.08790    0.53630    0.54700    1.000
    O24      O        0.04120    0.41370    0.54600    1.000
    C63      C        0.10780    0.32200    0.56270    1.000
    C64      C        0.82280    0.39540    0.55900    1.000
    C65      C        0.13290    0.32500    0.50560    1.000
    C66      C        0.12680    0.27250    0.60020    1.000
    C67      C        0.79530    0.34290    0.58890    1.000
    C68      C        0.78970    0.42290    0.51000    1.000
    H41      H        0.11930    0.35960    0.48040    1.000
    C69      C        0.16930    0.22590    0.57740    1.000
    H42      H        0.11150    0.27020    0.64020    1.000
    H43      H        0.81680    0.32610    0.62320    1.000
    C70      C        0.73200    0.39330    0.49290    1.000
    H44      H        0.80600    0.46000    0.48970    1.000
    C71      C        0.19370    0.23380    0.51970    1.000
    H45      H        0.18150    0.18940    0.60080    1.000
    C72      C        0.70840    0.34270    0.52420    1.000
    H46      H        0.70920    0.40890    0.45890    1.000
    H47      H        0.22470    0.20320    0.50570    1.000
    H48      H        0.66760    0.32520    0.51270    1.000
    Cd5      Cd       0.78114    0.70871    0.38563    1.000
    N13      N        0.88660    0.69860    0.35030    1.000
    N14      N        0.68470    0.73990    0.42870    1.000
    N15      N        0.82370    0.71870    0.48340    1.000
    C73      C        0.90210    0.65080    0.31380    1.000
    C74      C        0.93310    0.74160    0.36760    1.000
    H49      H        0.86960    0.62070    0.30200    1.000
    C75      C        0.96540    0.64340    0.29230    1.000
    C76      C        0.99490    0.73790    0.34820    1.000
    H50      H        0.92160    0.77550    0.39430    1.000
    C77      C        0.97970    0.58810    0.25200    1.000
    C78      C        0.01200    0.68710    0.30870    1.000
    H51      H        0.02630    0.76880    0.36090    1.000
    O25      O        0.03680    0.58740    0.22970    1.000
    O26      O        0.93680    0.54810    0.24270    1.000
    H52      H        0.05510    0.68350    0.29390    1.000
    Cr5      Cr       0.07764    0.51945    0.18080    1.000
    O27      O        0.12960    0.45450    0.13830    1.000
    O28      O        0.10420    0.58960    0.12580    1.000
    C79      C        0.12690    0.43900    0.08380    1.000
    C80      C        0.07960    0.61360    0.07900    1.000
    O29      O        0.96370    0.41210    0.04700    1.000
    O30      O        0.08630    0.45880    0.04600    1.000
    C81      C        0.17800    0.39220    0.06270    1.000
    C82      C        0.10460    0.67720    0.05900    1.000
    C83      C        0.17500    0.36710    0.00560    1.000
    C84      C        0.22750    0.37320    0.10020    1.000
    C85      C        0.15710    0.70470    0.08890    1.000
    C86      C        0.07710    0.71030    0.01000    1.000
    H53      H        0.14040    0.38070    0.98040    1.000
    C87      C        0.27410    0.33070    0.07740    1.000
    H54      H        0.22980    0.38850    0.14020    1.000
    H55      H        0.17390    0.68320    0.12320    1.000
    C88      C        0.10670    0.76800    0.99290    1.000
    H56      H        0.04000    0.69400    0.98970    1.000
    C89      C        0.26620    0.30630    0.01970    1.000
    H57      H        0.31060    0.31850    0.10080    1.000
    C90      C        0.15730    0.79160    0.02420    1.000
    H58      H        0.09110    0.79080    0.95890    1.000
    H59      H        0.29680    0.27530    0.00570    1.000
    H60      H        0.17480    0.83240    0.01270    1.000
    Cd6      Cd       0.21886    0.29129    0.38563    1.000
    N16      N        0.11340    0.30140    0.35030    1.000
    N17      N        0.31530    0.26010    0.42870    1.000
    N18      N        0.17630    0.28130    0.48340    1.000
    C91      C        0.09790    0.34920    0.31380    1.000
    C92      C        0.06690    0.25840    0.36760    1.000
    H61      H        0.13040    0.37930    0.30200    1.000
    C93      C        0.03460    0.35660    0.29230    1.000
    C94      C        0.00510    0.26210    0.34820    1.000
    H62      H        0.07840    0.22450    0.39430    1.000
    C95      C        0.02030    0.41190    0.25200    1.000
    C96      C        0.98800    0.31290    0.30870    1.000
    H63      H        0.97370    0.23120    0.36090    1.000
    O31      O        0.96320    0.41260    0.22970    1.000
    O32      O        0.06320    0.45190    0.24270    1.000
    H64      H        0.94490    0.31650    0.29390    1.000
    Cr6      Cr       0.92236    0.48055    0.18080    1.000
    O33      O        0.87040    0.54550    0.13830    1.000
    O34      O        0.89580    0.41040    0.12580    1.000
    C97      C        0.87310    0.56100    0.08380    1.000
    C98      C        0.92040    0.38640    0.07900    1.000
    O35      O        0.03630    0.58790    0.04700    1.000
    O36      O        0.91370    0.54120    0.04600    1.000
    C99      C        0.82200    0.60780    0.06270    1.000
    C100     C        0.89540    0.32280    0.05900    1.000
    C101     C        0.82500    0.63290    0.00560    1.000
    C102     C        0.77250    0.62680    0.10020    1.000
    C103     C        0.84290    0.29530    0.08890    1.000
    C104     C        0.92290    0.28970    0.01000    1.000
    H65      H        0.85960    0.61930    0.98040    1.000
    C105     C        0.72590    0.66930    0.07740    1.000
    H66      H        0.77020    0.61150    0.14020    1.000
    H67      H        0.82610    0.31680    0.12320    1.000
    C106     C        0.89330    0.23200    0.99290    1.000
    H68      H        0.96000    0.30600    0.98970    1.000
    C107     C        0.73380    0.69370    0.01970    1.000
    H69      H        0.68940    0.68150    0.10080    1.000
    C108     C        0.84270    0.20840    0.02420    1.000
    H70      H        0.90890    0.20920    0.95890    1.000
    H71      H        0.70320    0.72470    0.00570    1.000
    H72      H        0.82520    0.16760    0.01270    1.000
    Cd7      Cd       0.29129    0.78114    0.61437    1.000
    N19      N        0.30140    0.88660    0.64970    1.000
    N20      N        0.26010    0.68470    0.57130    1.000
    N21      N        0.28130    0.82370    0.51660    1.000
    C109     C        0.34920    0.90210    0.68620    1.000
    C110     C        0.25840    0.93310    0.63240    1.000
    H73      H        0.37930    0.86960    0.69800    1.000
    C111     C        0.35660    0.96540    0.70770    1.000
    C112     C        0.26210    0.99490    0.65180    1.000
    H74      H        0.22450    0.92160    0.60570    1.000
    C113     C        0.41190    0.97970    0.74800    1.000
    C114     C        0.31290    0.01200    0.69130    1.000
    H75      H        0.23120    0.02630    0.63910    1.000
    O37      O        0.41260    0.03680    0.77030    1.000
    O38      O        0.45190    0.93680    0.75730    1.000
    H76      H        0.31650    0.05510    0.70610    1.000
    Cr7      Cr       0.48055    0.07764    0.81920    1.000
    O39      O        0.54550    0.12960    0.86170    1.000
    O40      O        0.41040    0.10420    0.87420    1.000
    C115     C        0.56100    0.12690    0.91620    1.000
    C116     C        0.38640    0.07960    0.92100    1.000
    O41      O        0.58790    0.96370    0.95300    1.000
    O42      O        0.54120    0.08630    0.95400    1.000
    C117     C        0.60780    0.17800    0.93730    1.000
    C118     C        0.32280    0.10460    0.94100    1.000
    C119     C        0.63290    0.17500    0.99440    1.000
    C120     C        0.62680    0.22750    0.89980    1.000
    C121     C        0.29530    0.15710    0.91110    1.000
    C122     C        0.28970    0.07710    0.99000    1.000
    H77      H        0.61930    0.14040    0.01960    1.000
    C123     C        0.66930    0.27410    0.92260    1.000
    H78      H        0.61150    0.22980    0.85980    1.000
    H79      H        0.31680    0.17390    0.87680    1.000
    C124     C        0.23200    0.10670    0.00710    1.000
    H80      H        0.30600    0.04000    0.01030    1.000
    C125     C        0.69370    0.26620    0.98030    1.000
    H81      H        0.68150    0.31060    0.89920    1.000
    C126     C        0.20840    0.15730    0.97580    1.000
    H82      H        0.20920    0.09110    0.04110    1.000
    H83      H        0.72470    0.29680    0.99430    1.000
    H84      H        0.16760    0.17480    0.98730    1.000
    Cd8      Cd       0.70871    0.21886    0.61437    1.000
    N22      N        0.69860    0.11340    0.64970    1.000
    N23      N        0.73990    0.31530    0.57130    1.000
    N24      N        0.71870    0.17630    0.51660    1.000
    C127     C        0.65080    0.09790    0.68620    1.000
    C128     C        0.74160    0.06690    0.63240    1.000
    H85      H        0.62070    0.13040    0.69800    1.000
    C129     C        0.64340    0.03460    0.70770    1.000
    C130     C        0.73790    0.00510    0.65180    1.000
    H86      H        0.77550    0.07840    0.60570    1.000
    C131     C        0.58810    0.02030    0.74800    1.000
    C132     C        0.68710    0.98800    0.69130    1.000
    H87      H        0.76880    0.97370    0.63910    1.000
    O43      O        0.58740    0.96320    0.77030    1.000
    O44      O        0.54810    0.06320    0.75730    1.000
    H88      H        0.68350    0.94490    0.70610    1.000
    Cr8      Cr       0.51945    0.92236    0.81920    1.000
    O45      O        0.45450    0.87040    0.86170    1.000
    O46      O        0.58960    0.89580    0.87420    1.000
    C133     C        0.43900    0.87310    0.91620    1.000
    C134     C        0.61360    0.92040    0.92100    1.000
    O47      O        0.41210    0.03630    0.95300    1.000
    O48      O        0.45880    0.91370    0.95400    1.000
    C135     C        0.39220    0.82200    0.93730    1.000
    C136     C        0.67720    0.89540    0.94100    1.000
    C137     C        0.36710    0.82500    0.99440    1.000
    C138     C        0.37320    0.77250    0.89980    1.000
    C139     C        0.70470    0.84290    0.91110    1.000
    C140     C        0.71030    0.92290    0.99000    1.000
    H89      H        0.38070    0.85960    0.01960    1.000
    C141     C        0.33070    0.72590    0.92260    1.000
    H90      H        0.38850    0.77020    0.85980    1.000
    H91      H        0.68320    0.82610    0.87680    1.000
    C142     C        0.76800    0.89330    0.00710    1.000
    H92      H        0.69400    0.96000    0.01030    1.000
    C143     C        0.30630    0.73380    0.98030    1.000
    H93      H        0.31850    0.68940    0.89920    1.000
    C144     C        0.79160    0.84270    0.97580    1.000
    H94      H        0.79080    0.90890    0.04110    1.000
    H95      H        0.27530    0.70320    0.99430    1.000
    H96      H        0.83240    0.82520    0.98730    1.000
    O49      O        0.50000    0.00000    0.36150    1.000
    Cr9      Cr       0.50000    0.00000    0.44649    1.000
    O50      O        0.00000    0.50000    0.63850    1.000
    Cr10     Cr       0.00000    0.50000    0.55351    1.000
    O51      O        0.00000    0.50000    0.13850    1.000
    Cr11     Cr       0.00000    0.50000    0.05351    1.000
    O52      O        0.50000    0.00000    0.86150    1.000
    Cr12     Cr       0.50000    0.00000    0.94649    1.000
