# CIF file generated by openbabel 3.1.0, see https://openbabel.org
data_I
_chemical_name_common 'image0'
_cell_length_a 25.45
_cell_length_b 11.928
_cell_length_c 25.835
_cell_angle_alpha 90
_cell_angle_beta 116.777
_cell_angle_gamma 90
_space_group_name_H-M_alt 'P 1'
_space_group_name_Hall 'P 1'
loop_
    _symmetry_equiv_pos_as_xyz
    x,y,z
loop_
    _atom_site_label
    _atom_site_type_symbol
    _atom_site_fract_x
    _atom_site_fract_y
    _atom_site_fract_z
    _atom_site_occupancy
    Cd1      Cd       0.47750    0.17535    0.09091    1.000
    Cd2      Cd       0.07013    0.74728    0.51095    1.000
    Na1      Na       0.97939    0.51250    0.92696    1.000
    C1       C        0.39810    0.01740    0.02850    1.000
    C2       C        0.35180    0.93540    0.98820    1.000
    C3       C        0.35350    0.90110    0.93680    1.000
    H1       H        0.38270    0.92770    0.92760    1.000
    C4       C        0.31100    0.82710    0.90030    1.000
    H2       H        0.31300    0.79990    0.86750    1.000
    C5       C        0.26650    0.79390    0.91220    1.000
    C6       C        0.26640    0.82490    0.96290    1.000
    H3       H        0.23770    0.79630    0.97230    1.000
    C7       C        0.30740    0.89680    0.00000    1.000
    H4       H        0.30550    0.92010    0.03350    1.000
    C8       C        0.19990    0.72550    0.81190    1.000
    C9       C        0.17810    0.63070    0.77890    1.000
    H5       H        0.18180    0.56240    0.79760    1.000
    C10      C        0.15170    0.63310    0.72130    1.000
    H6       H        0.13560    0.56770    0.70050    1.000
    C11      C        0.14790    0.73300    0.69150    1.000
    C12      C        0.17000    0.82710    0.72540    1.000
    H7       H        0.16780    0.89560    0.70730    1.000
    C13      C        0.19500    0.82380    0.78420    1.000
    H8       H        0.20870    0.88950    0.80540    1.000
    C14      C        0.11950    0.73710    0.62750    1.000
    C15      C        0.12000    0.40180    0.96740    1.000
    C16      C        0.14740    0.48430    0.94190    1.000
    C17      C        0.11060    0.55400    0.89740    1.000
    H9       H        0.07000    0.54600    0.88140    1.000
    C18      C        0.13460    0.63370    0.87750    1.000
    H10      H        0.11020    0.68580    0.85060    1.000
    C19      C        0.19560    0.63940    0.89670    1.000
    C20      C        0.23150    0.56510    0.93920    1.000
    H11      H        0.27200    0.56650    0.95200    1.000
    C21      C        0.20720    0.48890    0.96270    1.000
    H12      H        0.23130    0.44120    0.99240    1.000
    C22      C        0.44510    0.38110    0.13460    1.000
    C23      C        0.40860    0.47520    0.13910    1.000
    C24      C        0.41820    0.52360    0.18990    1.000
    H13      H        0.44840    0.49640    0.22410    1.000
    C25      C        0.38500    0.61090    0.19250    1.000
    H14      H        0.39400    0.64430    0.22800    1.000
    C26      C        0.33770    0.65080    0.14260    1.000
    C27      C        0.32810    0.60440    0.09160    1.000
    H15      H        0.29840    0.63350    0.05760    1.000
    C28      C        0.36090    0.51480    0.08800    1.000
    H16      H        0.35160    0.48120    0.05240    1.000
    C29      C        0.33360    0.83130    0.18600    1.000
    C30      C        0.38220    0.87530    0.18460    1.000
    H17      H        0.39280    0.84920    0.15670    1.000
    C31      C        0.41610    0.95610    0.22240    1.000
    H18      H        0.44790    0.98710    0.21880    1.000
    C32      C        0.40240    0.99120    0.26600    1.000
    C33      C        0.35200    0.94940    0.26560    1.000
    H19      H        0.34010    0.97630    0.29240    1.000
    C34      C        0.31840    0.86840    0.22640    1.000
    H20      H        0.28530    0.83960    0.22810    1.000
    C35      C        0.24040    0.73500    0.11850    1.000
    C36      C        0.20790    0.83620    0.10080    1.000
    H21      H        0.22640    0.90570    0.10930    1.000
    C37      C        0.14870    0.82700    0.07110    1.000
    H22      H        0.12660    0.89250    0.05890    1.000
    C38      C        0.11960    0.72760    0.05810    1.000
    C39      C        0.15200    0.63130    0.07300    1.000
    H23      H        0.13280    0.56270    0.06200    1.000
    C40      C        0.21330    0.63300    0.10410    1.000
    H24      H        0.23490    0.56690    0.11470    1.000
    C41      C        0.05260    0.71760    0.02710    1.000
    C42      C        0.44370    0.06550    0.31160    1.000
    N1       N        0.22180    0.71900    0.87490    1.000
    N2       N        0.30440    0.74060    0.14610    1.000
    O1       O        0.48950    0.10440    0.31030    1.000
    O2       O        0.43260    0.09020    0.35390    1.000
    O3       O        0.43810    0.04920    0.01560    1.000
    O4       O        0.39450    0.05630    0.07180    1.000
    O5       O        0.42740    0.32780    0.08860    1.000
    O6       O        0.49260    0.35810    0.18030    1.000
    O7       O        0.02310    0.80970    0.02160    1.000
    O8       O        0.02860    0.62500    0.00950    1.000
    O9       O        0.15250    0.33570    0.00510    1.000
    O10      O        0.06530    0.39960    0.94770    1.000
    O11      O        0.12050    0.82630    0.60200    1.000
    O12      O        0.09400    0.65110    0.59940    1.000
    Cd3      Cd       0.52250    0.17535    0.40909    1.000
    Cd4      Cd       0.92987    0.74728    0.98905    1.000
    Na2      Na       0.02061    0.51250    0.57304    1.000
    C43      C        0.60190    0.01740    0.47150    1.000
    C44      C        0.64820    0.93540    0.51180    1.000
    C45      C        0.64650    0.90110    0.56320    1.000
    H25      H        0.61730    0.92770    0.57240    1.000
    C46      C        0.68900    0.82710    0.59970    1.000
    H26      H        0.68700    0.79990    0.63250    1.000
    C47      C        0.73350    0.79390    0.58780    1.000
    C48      C        0.73360    0.82490    0.53710    1.000
    H27      H        0.76230    0.79630    0.52770    1.000
    C49      C        0.69260    0.89680    0.50000    1.000
    H28      H        0.69450    0.92010    0.46650    1.000
    C50      C        0.80010    0.72550    0.68810    1.000
    C51      C        0.82190    0.63070    0.72110    1.000
    H29      H        0.81820    0.56240    0.70240    1.000
    C52      C        0.84830    0.63310    0.77870    1.000
    H30      H        0.86440    0.56770    0.79950    1.000
    C53      C        0.85210    0.73300    0.80850    1.000
    C54      C        0.83000    0.82710    0.77460    1.000
    H31      H        0.83220    0.89560    0.79270    1.000
    C55      C        0.80500    0.82380    0.71580    1.000
    H32      H        0.79130    0.88950    0.69460    1.000
    C56      C        0.88050    0.73710    0.87250    1.000
    C57      C        0.88000    0.40180    0.53260    1.000
    C58      C        0.85260    0.48430    0.55810    1.000
    C59      C        0.88940    0.55400    0.60260    1.000
    H33      H        0.93000    0.54600    0.61860    1.000
    C60      C        0.86540    0.63370    0.62250    1.000
    H34      H        0.88980    0.68580    0.64940    1.000
    C61      C        0.80440    0.63940    0.60330    1.000
    C62      C        0.76850    0.56510    0.56080    1.000
    H35      H        0.72800    0.56650    0.54800    1.000
    C63      C        0.79280    0.48890    0.53730    1.000
    H36      H        0.76870    0.44120    0.50760    1.000
    C64      C        0.55490    0.38110    0.36540    1.000
    C65      C        0.59140    0.47520    0.36090    1.000
    C66      C        0.58180    0.52360    0.31010    1.000
    H37      H        0.55160    0.49640    0.27590    1.000
    C67      C        0.61500    0.61090    0.30750    1.000
    H38      H        0.60600    0.64430    0.27200    1.000
    C68      C        0.66230    0.65080    0.35740    1.000
    C69      C        0.67190    0.60440    0.40840    1.000
    H39      H        0.70160    0.63350    0.44240    1.000
    C70      C        0.63910    0.51480    0.41200    1.000
    H40      H        0.64840    0.48120    0.44760    1.000
    C71      C        0.66640    0.83130    0.31400    1.000
    C72      C        0.61780    0.87530    0.31540    1.000
    H41      H        0.60720    0.84920    0.34330    1.000
    C73      C        0.58390    0.95610    0.27760    1.000
    H42      H        0.55210    0.98710    0.28120    1.000
    C74      C        0.59760    0.99120    0.23400    1.000
    C75      C        0.64800    0.94940    0.23440    1.000
    H43      H        0.65990    0.97630    0.20760    1.000
    C76      C        0.68160    0.86840    0.27360    1.000
    H44      H        0.71470    0.83960    0.27190    1.000
    C77      C        0.75960    0.73500    0.38150    1.000
    C78      C        0.79210    0.83620    0.39920    1.000
    H45      H        0.77360    0.90570    0.39070    1.000
    C79      C        0.85130    0.82700    0.42890    1.000
    H46      H        0.87340    0.89250    0.44110    1.000
    C80      C        0.88040    0.72760    0.44190    1.000
    C81      C        0.84800    0.63130    0.42700    1.000
    H47      H        0.86720    0.56270    0.43800    1.000
    C82      C        0.78670    0.63300    0.39590    1.000
    H48      H        0.76510    0.56690    0.38530    1.000
    C83      C        0.94740    0.71760    0.47290    1.000
    C84      C        0.55630    0.06550    0.18840    1.000
    N3       N        0.77820    0.71900    0.62510    1.000
    N4       N        0.69560    0.74060    0.35390    1.000
    O13      O        0.51050    0.10440    0.18970    1.000
    O14      O        0.56740    0.09020    0.14610    1.000
    O15      O        0.56190    0.04920    0.48440    1.000
    O16      O        0.60550    0.05630    0.42820    1.000
    O17      O        0.57260    0.32780    0.41140    1.000
    O18      O        0.50740    0.35810    0.31970    1.000
    O19      O        0.97690    0.80970    0.47840    1.000
    O20      O        0.97140    0.62500    0.49050    1.000
    O21      O        0.84750    0.33570    0.49490    1.000
    O22      O        0.93470    0.39960    0.55230    1.000
    O23      O        0.87950    0.82630    0.89800    1.000
    O24      O        0.90600    0.65110    0.90060    1.000
    Cd5      Cd       0.52250    0.82465    0.90909    1.000
    Cd6      Cd       0.92987    0.25272    0.48905    1.000
    Na3      Na       0.02061    0.48750    0.07304    1.000
    C85      C        0.60190    0.98260    0.97150    1.000
    C86      C        0.64820    0.06460    0.01180    1.000
    C87      C        0.64650    0.09890    0.06320    1.000
    H49      H        0.61730    0.07230    0.07240    1.000
    C88      C        0.68900    0.17290    0.09970    1.000
    H50      H        0.68700    0.20010    0.13250    1.000
    C89      C        0.73350    0.20610    0.08780    1.000
    C90      C        0.73360    0.17510    0.03710    1.000
    H51      H        0.76230    0.20370    0.02770    1.000
    C91      C        0.69260    0.10320    0.00000    1.000
    H52      H        0.69450    0.07990    0.96650    1.000
    C92      C        0.80010    0.27450    0.18810    1.000
    C93      C        0.82190    0.36930    0.22110    1.000
    H53      H        0.81820    0.43760    0.20240    1.000
    C94      C        0.84830    0.36690    0.27870    1.000
    H54      H        0.86440    0.43230    0.29950    1.000
    C95      C        0.85210    0.26700    0.30850    1.000
    C96      C        0.83000    0.17290    0.27460    1.000
    H55      H        0.83220    0.10440    0.29270    1.000
    C97      C        0.80500    0.17620    0.21580    1.000
    H56      H        0.79130    0.11050    0.19460    1.000
    C98      C        0.88050    0.26290    0.37250    1.000
    C99      C        0.88000    0.59820    0.03260    1.000
    C100     C        0.85260    0.51570    0.05810    1.000
    C101     C        0.88940    0.44600    0.10260    1.000
    H57      H        0.93000    0.45400    0.11860    1.000
    C102     C        0.86540    0.36630    0.12250    1.000
    H58      H        0.88980    0.31420    0.14940    1.000
    C103     C        0.80440    0.36060    0.10330    1.000
    C104     C        0.76850    0.43490    0.06080    1.000
    H59      H        0.72800    0.43350    0.04800    1.000
    C105     C        0.79280    0.51110    0.03730    1.000
    H60      H        0.76870    0.55880    0.00760    1.000
    C106     C        0.55490    0.61890    0.86540    1.000
    C107     C        0.59140    0.52480    0.86090    1.000
    C108     C        0.58180    0.47640    0.81010    1.000
    H61      H        0.55160    0.50360    0.77590    1.000
    C109     C        0.61500    0.38910    0.80750    1.000
    H62      H        0.60600    0.35570    0.77200    1.000
    C110     C        0.66230    0.34920    0.85740    1.000
    C111     C        0.67190    0.39560    0.90840    1.000
    H63      H        0.70160    0.36650    0.94240    1.000
    C112     C        0.63910    0.48520    0.91200    1.000
    H64      H        0.64840    0.51880    0.94760    1.000
    C113     C        0.66640    0.16870    0.81400    1.000
    C114     C        0.61780    0.12470    0.81540    1.000
    H65      H        0.60720    0.15080    0.84330    1.000
    C115     C        0.58390    0.04390    0.77760    1.000
    H66      H        0.55210    0.01290    0.78120    1.000
    C116     C        0.59760    0.00880    0.73400    1.000
    C117     C        0.64800    0.05060    0.73440    1.000
    H67      H        0.65990    0.02370    0.70760    1.000
    C118     C        0.68160    0.13160    0.77360    1.000
    H68      H        0.71470    0.16040    0.77190    1.000
    C119     C        0.75960    0.26500    0.88150    1.000
    C120     C        0.79210    0.16380    0.89920    1.000
    H69      H        0.77360    0.09430    0.89070    1.000
    C121     C        0.85130    0.17300    0.92890    1.000
    H70      H        0.87340    0.10750    0.94110    1.000
    C122     C        0.88040    0.27240    0.94190    1.000
    C123     C        0.84800    0.36870    0.92700    1.000
    H71      H        0.86720    0.43730    0.93800    1.000
    C124     C        0.78670    0.36700    0.89590    1.000
    H72      H        0.76510    0.43310    0.88530    1.000
    C125     C        0.94740    0.28240    0.97290    1.000
    C126     C        0.55630    0.93450    0.68840    1.000
    N5       N        0.77820    0.28100    0.12510    1.000
    N6       N        0.69560    0.25940    0.85390    1.000
    O25      O        0.51050    0.89560    0.68970    1.000
    O26      O        0.56740    0.90980    0.64610    1.000
    O27      O        0.56190    0.95080    0.98440    1.000
    O28      O        0.60550    0.94370    0.92820    1.000
    O29      O        0.57260    0.67220    0.91140    1.000
    O30      O        0.50740    0.64190    0.81970    1.000
    O31      O        0.97690    0.19030    0.97840    1.000
    O32      O        0.97140    0.37500    0.99050    1.000
    O33      O        0.84750    0.66430    0.99490    1.000
    O34      O        0.93470    0.60040    0.05230    1.000
    O35      O        0.87950    0.17370    0.39800    1.000
    O36      O        0.90600    0.34890    0.40060    1.000
    Cd7      Cd       0.47750    0.82465    0.59091    1.000
    Cd8      Cd       0.07013    0.25272    0.01095    1.000
    Na4      Na       0.97939    0.48750    0.42696    1.000
    C127     C        0.39810    0.98260    0.52850    1.000
    C128     C        0.35180    0.06460    0.48820    1.000
    C129     C        0.35350    0.09890    0.43680    1.000
    H73      H        0.38270    0.07230    0.42760    1.000
    C130     C        0.31100    0.17290    0.40030    1.000
    H74      H        0.31300    0.20010    0.36750    1.000
    C131     C        0.26650    0.20610    0.41220    1.000
    C132     C        0.26640    0.17510    0.46290    1.000
    H75      H        0.23770    0.20370    0.47230    1.000
    C133     C        0.30740    0.10320    0.50000    1.000
    H76      H        0.30550    0.07990    0.53350    1.000
    C134     C        0.19990    0.27450    0.31190    1.000
    C135     C        0.17810    0.36930    0.27890    1.000
    H77      H        0.18180    0.43760    0.29760    1.000
    C136     C        0.15170    0.36690    0.22130    1.000
    H78      H        0.13560    0.43230    0.20050    1.000
    C137     C        0.14790    0.26700    0.19150    1.000
    C138     C        0.17000    0.17290    0.22540    1.000
    H79      H        0.16780    0.10440    0.20730    1.000
    C139     C        0.19500    0.17620    0.28420    1.000
    H80      H        0.20870    0.11050    0.30540    1.000
    C140     C        0.11950    0.26290    0.12750    1.000
    C141     C        0.12000    0.59820    0.46740    1.000
    C142     C        0.14740    0.51570    0.44190    1.000
    C143     C        0.11060    0.44600    0.39740    1.000
    H81      H        0.07000    0.45400    0.38140    1.000
    C144     C        0.13460    0.36630    0.37750    1.000
    H82      H        0.11020    0.31420    0.35060    1.000
    C145     C        0.19560    0.36060    0.39670    1.000
    C146     C        0.23150    0.43490    0.43920    1.000
    H83      H        0.27200    0.43350    0.45200    1.000
    C147     C        0.20720    0.51110    0.46270    1.000
    H84      H        0.23130    0.55880    0.49240    1.000
    C148     C        0.44510    0.61890    0.63460    1.000
    C149     C        0.40860    0.52480    0.63910    1.000
    C150     C        0.41820    0.47640    0.68990    1.000
    H85      H        0.44840    0.50360    0.72410    1.000
    C151     C        0.38500    0.38910    0.69250    1.000
    H86      H        0.39400    0.35570    0.72800    1.000
    C152     C        0.33770    0.34920    0.64260    1.000
    C153     C        0.32810    0.39560    0.59160    1.000
    H87      H        0.29840    0.36650    0.55760    1.000
    C154     C        0.36090    0.48520    0.58800    1.000
    H88      H        0.35160    0.51880    0.55240    1.000
    C155     C        0.33360    0.16870    0.68600    1.000
    C156     C        0.38220    0.12470    0.68460    1.000
    H89      H        0.39280    0.15080    0.65670    1.000
    C157     C        0.41610    0.04390    0.72240    1.000
    H90      H        0.44790    0.01290    0.71880    1.000
    C158     C        0.40240    0.00880    0.76600    1.000
    C159     C        0.35200    0.05060    0.76560    1.000
    H91      H        0.34010    0.02370    0.79240    1.000
    C160     C        0.31840    0.13160    0.72640    1.000
    H92      H        0.28530    0.16040    0.72810    1.000
    C161     C        0.24040    0.26500    0.61850    1.000
    C162     C        0.20790    0.16380    0.60080    1.000
    H93      H        0.22640    0.09430    0.60930    1.000
    C163     C        0.14870    0.17300    0.57110    1.000
    H94      H        0.12660    0.10750    0.55890    1.000
    C164     C        0.11960    0.27240    0.55810    1.000
    C165     C        0.15200    0.36870    0.57300    1.000
    H95      H        0.13280    0.43730    0.56200    1.000
    C166     C        0.21330    0.36700    0.60410    1.000
    H96      H        0.23490    0.43310    0.61470    1.000
    C167     C        0.05260    0.28240    0.52710    1.000
    C168     C        0.44370    0.93450    0.81160    1.000
    N7       N        0.22180    0.28100    0.37490    1.000
    N8       N        0.30440    0.25940    0.64610    1.000
    O37      O        0.48950    0.89560    0.81030    1.000
    O38      O        0.43260    0.90980    0.85390    1.000
    O39      O        0.43810    0.95080    0.51560    1.000
    O40      O        0.39450    0.94370    0.57180    1.000
    O41      O        0.42740    0.67220    0.58860    1.000
    O42      O        0.49260    0.64190    0.68030    1.000
    O43      O        0.02310    0.19030    0.52160    1.000
    O44      O        0.02860    0.37500    0.50950    1.000
    O45      O        0.15250    0.66430    0.50510    1.000
    O46      O        0.06530    0.60040    0.44770    1.000
    O47      O        0.12050    0.17370    0.10200    1.000
    O48      O        0.09400    0.34890    0.09940    1.000
    Cd9      Cd       0.50000    0.23410    0.25000    1.000
    Cd10     Cd       0.50000    0.76590    0.75000    1.000
