# CIF file generated by openbabel 3.1.0, see https://openbabel.org
data_I
_chemical_name_common 'KAPHAL_clean'
_cell_length_a 8.304
_cell_length_b 8.728
_cell_length_c 9.177
_cell_angle_alpha 95.59
_cell_angle_beta 115.7
_cell_angle_gamma 110.26
_space_group_name_H-M_alt 'P 1'
_space_group_name_Hall 'P 1'
loop_
    _symmetry_equiv_pos_as_xyz
    x,y,z
loop_
    _atom_site_label
    _atom_site_type_symbol
    _atom_site_fract_x
    _atom_site_fract_y
    _atom_site_fract_z
    _atom_site_occupancy
    Ce1      Ce       0.91962    0.99195    0.73179    1.000
    Ce2      Ce       0.08038    0.00805    0.26821    1.000
    C1       C        0.32790    0.99580    0.10750    1.000
    C2       C        0.45340    0.99990    0.03290    1.000
    C3       C        0.14900    0.44530    0.89020    1.000
    C4       C        0.33080    0.57540    0.03990    1.000
    C5       C        0.47810    0.67450    0.16570    1.000
    C6       C        0.65520    0.79000    0.32360    1.000
    C7       C        0.67210    0.00420    0.89250    1.000
    C8       C        0.54660    0.00010    0.96710    1.000
    C9       C        0.85100    0.55470    0.10980    1.000
    C10      C        0.66920    0.42460    0.96010    1.000
    C11      C        0.52190    0.32550    0.83430    1.000
    C12      C        0.34480    0.21000    0.67640    1.000
    O1       O        0.15360    0.97520    0.01110    1.000
    O2       O        0.39430    0.01220    0.26220    1.000
    O3       O        0.08940    0.29720    0.90610    1.000
    O4       O        0.07100    0.48730    0.76290    1.000
    O5       O        0.63670    0.80250    0.45100    1.000
    O6       O        0.81090    0.86880    0.32270    1.000
    O7       O        0.84640    0.02480    0.98890    1.000
    O8       O        0.60570    0.98780    0.73780    1.000
    O9       O        0.91060    0.70280    0.09390    1.000
    O10      O        0.92900    0.51270    0.23710    1.000
    O11      O        0.36330    0.19750    0.54900    1.000
    O12      O        0.18910    0.13120    0.67730    1.000
