# CIF file generated by openbabel 3.1.0, see https://openbabel.org
data_I
_chemical_name_common 'UVASAM01_clean'
_cell_length_a 8.3985
_cell_length_b 13.4836
_cell_length_c 14.1863
_cell_angle_alpha 61.6255
_cell_angle_beta 85.794
_cell_angle_gamma 81.122
_space_group_name_H-M_alt 'P 1'
_space_group_name_Hall 'P 1'
loop_
    _symmetry_equiv_pos_as_xyz
    x,y,z
loop_
    _atom_site_label
    _atom_site_type_symbol
    _atom_site_fract_x
    _atom_site_fract_y
    _atom_site_fract_z
    _atom_site_occupancy
    Zn1      Zn       0.69643    0.60892    0.18234    1.000
    Zn2      Zn       0.19643    0.79126    0.81766    1.000
    H1       H        0.29580    0.21800    0.52700    1.000
    H2       H        0.89100    0.11950    0.10900    1.000
    H3       H        0.49420    0.14470    0.16320    1.000
    H4       H        0.69430    0.26430    0.40580    1.000
    H5       H        0.69600    0.79350    0.23280    1.000
    H6       H        0.27230    0.14140    0.82880    1.000
    H7       H        0.56990    0.51910    0.92160    1.000
    H8       H        0.89440    0.97170    0.88920    1.000
    H9       H        0.79210    0.69050    0.80500    1.000
    H10      H        0.07030    0.33110    0.47960    1.000
    H11      H        0.32990    0.84540    0.59840    1.000
    H12      H        0.81790    0.79140    0.96140    1.000
    H13      H        0.79580    0.74500    0.47300    1.000
    H14      H        0.04440    0.60030    0.12500    1.000
    H15      H        0.18840    0.68500    0.25960    1.000
    H16      H        0.93080    0.13900    0.90660    1.000
    H17      H        0.39440    0.86090    0.11080    1.000
    H18      H        0.58260    0.25850    0.22420    1.000
    H19      H        0.31790    0.75280    0.03860    1.000
    H20      H        0.29210    0.49550    0.19500    1.000
    H21      H        0.19430    0.67010    0.59420    1.000
    H22      H        0.47330    0.40420    0.86100    1.000
    H23      H        0.08260    0.48270    0.77580    1.000
    H24      H        0.68840    0.94460    0.74040    1.000
    H25      H        0.57030    0.81070    0.52040    1.000
    H26      H        0.46140    0.36130    0.34960    1.000
    H27      H        0.99420    0.30790    0.83680    1.000
    H28      H        0.54440    0.72530    0.87500    1.000
    H29      H        0.44890    0.05750    0.66200    1.000
    H30      H        0.96140    0.71090    0.65040    1.000
    H31      H        0.39100    0.22850    0.89100    1.000
    H32      H        0.43080    0.04560    0.09340    1.000
    H33      H        0.43200    0.62910    0.52000    1.000
    H34      H        0.06990    0.44070    0.07840    1.000
    H35      H        0.97330    0.26520    0.13900    1.000
    H36      H        0.19600    0.02630    0.76720    1.000
    H37      H        0.93200    0.14910    0.48000    1.000
    H38      H        0.77230    0.97020    0.17120    1.000
    H39      H        0.82990    0.44380    0.40160    1.000
    H40      H        0.94890    0.71950    0.33800    1.000
    C1       C        0.50930    0.22060    0.11380    1.000
    C2       C        0.06820    0.38710    0.40640    1.000
    C3       C        0.35670    0.89730    0.03900    1.000
    C4       C        0.00930    0.33440    0.88620    1.000
    C5       C        0.70850    0.74900    0.65360    1.000
    C6       C        0.58170    0.39970    0.07960    1.000
    C7       C        0.85670    0.93630    0.96100    1.000
    C8       C        0.73940    0.82930    0.16260    1.000
    C9       C        0.42490    0.81280    0.64080    1.000
    C10      C        0.23940    0.99190    0.83740    1.000
    C11      C        0.47850    0.26220    0.00440    1.000
    C12      C        0.90380    0.10210    0.98060    1.000
    C13      C        0.80970    0.82820    0.00480    1.000
    C14      C        0.84840    0.99160    0.02200    1.000
    C15      C        0.40380    0.08270    0.01940    1.000
    C16      C        0.83670    0.03620    0.61920    1.000
    C17      C        0.88850    0.72660    0.51580    1.000
    C18      C        0.86810    0.72640    0.60900    1.000
    C19      C        0.30970    0.83300    0.99520    1.000
    C20      C        0.78430    0.93500    0.12640    1.000
    C21      C        0.28430    0.06140    0.87360    1.000
    C22      C        0.92020    0.15610    0.03540    1.000
    C23      C        0.69900    0.72230    0.76080    1.000
    C24      C        0.13330    0.59350    0.87760    1.000
    C25      C        0.19260    0.67270    0.52620    1.000
    C26      C        0.04780    0.70280    0.37440    1.000
    C27      C        0.38850    0.24240    0.48420    1.000
    C28      C        0.33400    0.64950    0.48160    1.000
    C29      C        0.05280    0.41430    0.02920    1.000
    C30      C        0.69000    0.00970    0.67200    1.000
    C31      C        0.55280    0.44350    0.97080    1.000
    C32      C        0.42020    0.19150    0.96460    1.000
    C33      C        0.06100    0.43850    0.85000    1.000
    C34      C        0.49180    0.63120    0.33160    1.000
    C35      C        0.19900    0.48310    0.23920    1.000
    C36      C        0.36810    0.33540    0.39100    1.000
    C37      C        0.83400    0.13110    0.51840    1.000
    C38      C        0.19000    0.68170    0.32800    1.000
    C39      C        0.56100    0.28850    0.15000    1.000
    C40      C        0.33670    0.65540    0.38080    1.000
    C41      C        0.63330    0.47110    0.12240    1.000
    C42      C        0.97850    0.26660    0.99560    1.000
    C43      C        0.49770    0.37370    0.93480    1.000
    C44      C        0.92490    0.45360    0.35920    1.000
    C45      C        0.04650    0.70000    0.47360    1.000
    C46      C        0.69260    0.19890    0.47380    1.000
    C47      C        0.54650    0.17360    0.52640    1.000
    C48      C        0.20850    0.40260    0.34640    1.000
    C49      C        0.55030    0.74320    0.80160    1.000
    C50      C        0.05030    0.54480    0.19840    1.000
    C51      C        0.34840    0.01360    0.97800    1.000
    C52      C        0.99180    0.96280    0.66840    1.000
    C53      C        0.56820    0.79350    0.59360    1.000
    C54      C        0.08170    0.47930    0.92040    1.000
    C55      C        0.54780    0.07720    0.62560    1.000
    C56      C        0.99770    0.30850    0.06520    1.000
    N1       N        0.25330    0.87860    0.89500    1.000
    N2       N        0.75330    0.77360    0.10500    1.000
    N3       N        0.91610    0.53140    0.25520    1.000
    N4       N        0.41610    0.78660    0.74480    1.000
    O1       O        0.48540    0.64260    0.23820    1.000
    O2       O        0.15280    0.63531    0.94038    1.000
    O3       O        0.98540    0.88080    0.76180    1.000
    O4       O        0.62120    0.60470    0.38220    1.000
    O5       O        0.65720    0.43085    0.22090    1.000
    O6       O        0.65280    0.57569    0.05962    1.000
    O7       O        0.15720    0.65175    0.77910    1.000
    O8       O        0.12120    0.98690    0.61780    1.000
