# CIF file generated by openbabel 3.1.0, see https://openbabel.org
data_I
_chemical_name_common 'image0'
_cell_length_a 38.978
_cell_length_b 27.433
_cell_length_c 27.377
_cell_angle_alpha 90
_cell_angle_beta 133.806
_cell_angle_gamma 90
_space_group_name_H-M_alt 'P 1'
_space_group_name_Hall 'P 1'
loop_
    _symmetry_equiv_pos_as_xyz
    x,y,z
loop_
    _atom_site_label
    _atom_site_type_symbol
    _atom_site_fract_x
    _atom_site_fract_y
    _atom_site_fract_z
    _atom_site_occupancy
    Zn1      Zn       0.04856    0.25313    0.69540    1.000
    N1       N        0.97671    0.25864    0.62140    1.000
    O1       O        0.06415    0.31613    0.74764    1.000
    O2       O        0.05517    0.18872    0.66520    1.000
    O3       O        0.06745    0.28775    0.65098    1.000
    O4       O        0.06005    0.21599    0.77010    1.000
    C1       C        0.95121    0.28210    0.63130    1.000
    C2       C        0.95130    0.23720    0.56170    1.000
    C3       C        0.10400    0.32947    0.80060    1.000
    C4       C        0.09350    0.17146    0.68840    1.000
    H1       H        0.96760    0.29770    0.67250    1.000
    C5       C        0.90259    0.28380    0.58350    1.000
    C6       C        0.90260    0.23760    0.51190    1.000
    H2       H        0.96760    0.22090    0.55300    1.000
    C7       C        0.10590    0.37440    0.83420    1.000
    O5       O        0.14289    0.30846    0.83030    1.000
    C8       C        0.09210    0.12810    0.65460    1.000
    O6       O        0.13448    0.18847    0.73920    1.000
    O7       O        0.14566    0.28901    0.73150    1.000
    O8       O        0.13898    0.20734    0.84734    1.000
    H3       H        0.88650    0.30090    0.59190    1.000
    C9       C        0.87764    0.26000    0.52260    1.000
    H4       H        0.88690    0.22250    0.47070    1.000
    C10      C        0.06550    0.39880    0.80700    1.000
    C11      C        0.14850    0.39040    0.89610    1.000
    Zn2      Zn       0.15291    0.24680    0.79923    1.000
    C12      C        0.04870    0.10470    0.60170    1.000
    C13      C        0.13320    0.11030    0.67470    1.000
    C14      C        0.82460    0.25900    0.47080    1.000
    H5       H        0.03670    0.38990    0.76460    1.000
    C15      C        0.06670    0.43700    0.84180    1.000
    C16      C        0.15010    0.42800    0.93200    1.000
    H6       H        0.17670    0.37570    0.91410    1.000
    N2       N        0.22547    0.24242    0.87180    1.000
    H7       H        0.02100    0.11470    0.58990    1.000
    C17      C        0.04740    0.06710    0.56750    1.000
    C18      C        0.13110    0.07030    0.63970    1.000
    H8       H        0.16240    0.12450    0.71100    1.000
    C19      C        0.79930    0.26990    0.48280    1.000
    C20      C        0.79890    0.25020    0.40520    1.000
    H9       H        0.03870    0.45300    0.82230    1.000
    C21      C        0.10900    0.45130    0.90490    1.000
    H10      H        0.17890    0.43720    0.97410    1.000
    H11      H        0.01820    0.05330    0.53070    1.000
    C22      C        0.08940    0.04860    0.58700    1.000
    H12      H        0.15910    0.05880    0.65320    1.000
    C23      C        0.74950    0.26880    0.43150    1.000
    H13      H        0.81410    0.27870    0.52640    1.000
    H14      H        0.81460    0.24300    0.39170    1.000
    C24      C        0.74980    0.25150    0.35700    1.000
    C25      C        0.11100    0.49220    0.94240    1.000
    C26      C        0.08600    0.00920    0.54840    1.000
    H15      H        0.73310    0.27740    0.44360    1.000
    H16      H        0.73380    0.24770    0.31170    1.000
    C27      C        0.13120    0.48140    0.00770    1.000
    C28      C        0.07920    0.52890    0.90450    1.000
    C29      C        0.11410    0.97080    0.58180    1.000
    C30      C        0.04960    0.00490    0.47750    1.000
    C31      C        0.14000    0.52000    0.04550    1.000
    O9       O        0.16990    0.45040    0.04130    1.000
    C32      C        0.08510    0.56590    0.95400    1.000
    H17      H        0.05780    0.53170    0.85760    1.000
    C33      C        0.10460    0.92870    0.53150    1.000
    H18      H        0.13680    0.96820    0.62880    1.000
    C34      C        0.05290    0.97350    0.44250    1.000
    O10      O        0.01520    0.03850    0.43820    1.000
    H19      H        0.16620    0.51820    0.09190    1.000
    C35      C        0.11160    0.56360    0.01920    1.000
    C36      C        0.20830    0.44900    0.12000    1.000
    O11      O        0.04820    0.60950    0.90300    1.000
    C37      C        0.08910    0.93560    0.47650    1.000
    O12      O        0.13740    0.90800    0.57310    1.000
    H20      H        0.03140    0.97630    0.39570    1.000
    C38      C        0.10980    0.60110    0.05530    1.000
    H21      H        0.20000    0.46940    0.13940    1.000
    H22      H        0.21470    0.41610    0.13740    1.000
    C39      C        0.24920    0.47000    0.13090    1.000
    C40      C        0.01330    0.61160    0.83030    1.000
    C41      C        0.09200    0.89860    0.44120    1.000
    C42      C        0.06800    0.61890    0.03130    1.000
    C43      C        0.15170    0.61840    0.11650    1.000
    H23      H        0.27230    0.47670    0.17910    1.000
    H24      H        0.23670    0.50180    0.10970    1.000
    C44      C        0.28190    0.45860    0.11890    1.000
    H25      H        0.02490    0.59960    0.81060    1.000
    H26      H        0.98350    0.59610    0.80950    1.000
    C45      C        0.01140    0.66980    0.83150    1.000
    C46      C        0.05090    0.87570    0.38180    1.000
    C47      C        0.13450    0.88720    0.46100    1.000
    C48      C        0.06610    0.65030    0.07000    1.000
    H27      H        0.03990    0.61010    0.98800    1.000
    H28      H        0.18070    0.60910    0.13180    1.000
    C49      C        0.15060    0.65010    0.15570    1.000
    H29      H        0.27490    0.48280    0.08720    1.000
    H30      H        0.31430    0.46450    0.16150    1.000
    C50      C        0.28180    0.42040    0.09920    1.000
    H31      H        0.98490    0.67710    0.78390    1.000
    H32      H        0.99900    0.67470    0.85190    1.000
    C51      C        0.05190    0.84330    0.34460    1.000
    H33      H        0.02170    0.88290    0.36730    1.000
    H34      H        0.16260    0.90060    0.50050    1.000
    C52      C        0.13610    0.85570    0.42270    1.000
    H35      H        0.03690    0.66040    0.05360    1.000
    C53      C        0.10790    0.66610    0.13260    1.000
    H36      H        0.17890    0.66040    0.19770    1.000
    H37      H        0.30440    0.42070    0.09510    1.000
    H38      H        0.25060    0.41390    0.05580    1.000
    H39      H        0.29030    0.39550    0.13060    1.000
    C54      C        0.09649    0.83424    0.36640    1.000
    H40      H        0.02440    0.82800    0.30660    1.000
    H41      H        0.16510    0.84940    0.43630    1.000
    C55      C        0.10690    0.69870    0.17460    1.000
    C56      C        0.09864    0.80102    0.32420    1.000
    Zn3      Zn       0.54856    0.75313    0.69540    1.000
    N3       N        0.47671    0.75864    0.62140    1.000
    O13      O        0.56415    0.81613    0.74764    1.000
    O14      O        0.55517    0.68872    0.66520    1.000
    O15      O        0.56745    0.78775    0.65098    1.000
    O16      O        0.56005    0.71599    0.77010    1.000
    C57      C        0.45121    0.78210    0.63130    1.000
    C58      C        0.45130    0.73720    0.56170    1.000
    C59      C        0.60400    0.82947    0.80060    1.000
    C60      C        0.59350    0.67146    0.68840    1.000
    H42      H        0.46760    0.79770    0.67250    1.000
    C61      C        0.40259    0.78380    0.58350    1.000
    C62      C        0.40260    0.73760    0.51190    1.000
    H43      H        0.46760    0.72090    0.55300    1.000
    C63      C        0.60590    0.87440    0.83420    1.000
    O17      O        0.64289    0.80846    0.83030    1.000
    C64      C        0.59210    0.62810    0.65460    1.000
    O18      O        0.63448    0.68847    0.73920    1.000
    O19      O        0.64566    0.78901    0.73150    1.000
    O20      O        0.63898    0.70734    0.84734    1.000
    H44      H        0.38650    0.80090    0.59190    1.000
    C65      C        0.37764    0.76000    0.52260    1.000
    H45      H        0.38690    0.72250    0.47070    1.000
    C66      C        0.56550    0.89880    0.80700    1.000
    C67      C        0.64850    0.89040    0.89610    1.000
    Zn4      Zn       0.65291    0.74680    0.79923    1.000
    C68      C        0.54870    0.60470    0.60170    1.000
    C69      C        0.63320    0.61030    0.67470    1.000
    C70      C        0.32460    0.75900    0.47080    1.000
    H46      H        0.53670    0.88990    0.76460    1.000
    C71      C        0.56670    0.93700    0.84180    1.000
    C72      C        0.65010    0.92800    0.93200    1.000
    H47      H        0.67670    0.87570    0.91410    1.000
    N4       N        0.72547    0.74242    0.87180    1.000
    H48      H        0.52100    0.61470    0.58990    1.000
    C73      C        0.54740    0.56710    0.56750    1.000
    C74      C        0.63110    0.57030    0.63970    1.000
    H49      H        0.66240    0.62450    0.71100    1.000
    C75      C        0.29930    0.76990    0.48280    1.000
    C76      C        0.29890    0.75020    0.40520    1.000
    H50      H        0.53870    0.95300    0.82230    1.000
    C77      C        0.60900    0.95130    0.90490    1.000
    H51      H        0.67890    0.93720    0.97410    1.000
    H52      H        0.51820    0.55330    0.53070    1.000
    C78      C        0.58940    0.54860    0.58700    1.000
    H53      H        0.65910    0.55880    0.65320    1.000
    C79      C        0.24950    0.76880    0.43150    1.000
    H54      H        0.31410    0.77870    0.52640    1.000
    H55      H        0.31460    0.74300    0.39170    1.000
    C80      C        0.24980    0.75150    0.35700    1.000
    C81      C        0.61100    0.99220    0.94240    1.000
    C82      C        0.58600    0.50920    0.54840    1.000
    H56      H        0.23310    0.77740    0.44360    1.000
    H57      H        0.23380    0.74770    0.31170    1.000
    C83      C        0.63120    0.98140    0.00770    1.000
    C84      C        0.57920    0.02890    0.90450    1.000
    C85      C        0.61410    0.47080    0.58180    1.000
    C86      C        0.54960    0.50490    0.47750    1.000
    C87      C        0.64000    0.02000    0.04550    1.000
    O21      O        0.66990    0.95040    0.04130    1.000
    C88      C        0.58510    0.06590    0.95400    1.000
    H58      H        0.55780    0.03170    0.85760    1.000
    C89      C        0.60460    0.42870    0.53150    1.000
    H59      H        0.63680    0.46820    0.62880    1.000
    C90      C        0.55290    0.47350    0.44250    1.000
    O22      O        0.51520    0.53850    0.43820    1.000
    H60      H        0.66620    0.01820    0.09190    1.000
    C91      C        0.61160    0.06360    0.01920    1.000
    C92      C        0.70830    0.94900    0.12000    1.000
    O23      O        0.54820    0.10950    0.90300    1.000
    C93      C        0.58910    0.43560    0.47650    1.000
    O24      O        0.63740    0.40800    0.57310    1.000
    H61      H        0.53140    0.47630    0.39570    1.000
    C94      C        0.60980    0.10110    0.05530    1.000
    H62      H        0.70000    0.96940    0.13940    1.000
    H63      H        0.71470    0.91610    0.13740    1.000
    C95      C        0.74920    0.97000    0.13090    1.000
    C96      C        0.51330    0.11160    0.83030    1.000
    C97      C        0.59200    0.39860    0.44120    1.000
    C98      C        0.56800    0.11890    0.03130    1.000
    C99      C        0.65170    0.11840    0.11650    1.000
    H64      H        0.77230    0.97670    0.17910    1.000
    H65      H        0.73670    0.00180    0.10970    1.000
    C100     C        0.78190    0.95860    0.11890    1.000
    H66      H        0.52490    0.09960    0.81060    1.000
    H67      H        0.48350    0.09610    0.80950    1.000
    C101     C        0.51140    0.16980    0.83150    1.000
    C102     C        0.55090    0.37570    0.38180    1.000
    C103     C        0.63450    0.38720    0.46100    1.000
    C104     C        0.56610    0.15030    0.07000    1.000
    H68      H        0.53990    0.11010    0.98800    1.000
    H69      H        0.68070    0.10910    0.13180    1.000
    C105     C        0.65060    0.15010    0.15570    1.000
    H70      H        0.77490    0.98280    0.08720    1.000
    H71      H        0.81430    0.96450    0.16150    1.000
    C106     C        0.78180    0.92040    0.09920    1.000
    H72      H        0.48490    0.17710    0.78390    1.000
    H73      H        0.49900    0.17470    0.85190    1.000
    C107     C        0.55190    0.34330    0.34460    1.000
    H74      H        0.52170    0.38290    0.36730    1.000
    H75      H        0.66260    0.40060    0.50050    1.000
    C108     C        0.63610    0.35570    0.42270    1.000
    H76      H        0.53690    0.16040    0.05360    1.000
    C109     C        0.60790    0.16610    0.13260    1.000
    H77      H        0.67890    0.16040    0.19770    1.000
    H78      H        0.80440    0.92070    0.09510    1.000
    H79      H        0.75060    0.91390    0.05580    1.000
    H80      H        0.79030    0.89550    0.13060    1.000
    C110     C        0.59649    0.33424    0.36640    1.000
    H81      H        0.52440    0.32800    0.30660    1.000
    H82      H        0.66510    0.34940    0.43630    1.000
    C111     C        0.60690    0.19870    0.17460    1.000
    C112     C        0.59864    0.30102    0.32420    1.000
    Zn5      Zn       0.04856    0.74687    0.19540    1.000
    N5       N        0.97671    0.74136    0.12140    1.000
    O25      O        0.06415    0.68387    0.24764    1.000
    O26      O        0.05517    0.81128    0.16520    1.000
    O27      O        0.06745    0.71225    0.15098    1.000
    O28      O        0.06005    0.78401    0.27010    1.000
    C113     C        0.95121    0.71790    0.13130    1.000
    C114     C        0.95130    0.76280    0.06170    1.000
    C115     C        0.10400    0.67053    0.30060    1.000
    C116     C        0.09350    0.82854    0.18840    1.000
    H83      H        0.96760    0.70230    0.17250    1.000
    C117     C        0.90259    0.71620    0.08350    1.000
    C118     C        0.90260    0.76240    0.01190    1.000
    H84      H        0.96760    0.77910    0.05300    1.000
    C119     C        0.10590    0.62560    0.33420    1.000
    O29      O        0.14289    0.69154    0.33030    1.000
    C120     C        0.09210    0.87190    0.15460    1.000
    O30      O        0.13448    0.81153    0.23920    1.000
    O31      O        0.14566    0.71099    0.23150    1.000
    O32      O        0.13898    0.79266    0.34734    1.000
    H85      H        0.88650    0.69910    0.09190    1.000
    C121     C        0.87764    0.74000    0.02260    1.000
    H86      H        0.88690    0.77750    0.97070    1.000
    C122     C        0.06550    0.60120    0.30700    1.000
    C123     C        0.14850    0.60960    0.39610    1.000
    Zn6      Zn       0.15291    0.75320    0.29923    1.000
    C124     C        0.04870    0.89530    0.10170    1.000
    C125     C        0.13320    0.88970    0.17470    1.000
    C126     C        0.82460    0.74100    0.97080    1.000
    H87      H        0.03670    0.61010    0.26460    1.000
    C127     C        0.06670    0.56300    0.34180    1.000
    C128     C        0.15010    0.57200    0.43200    1.000
    H88      H        0.17670    0.62430    0.41410    1.000
    N6       N        0.22547    0.75758    0.37180    1.000
    H89      H        0.02100    0.88530    0.08990    1.000
    C129     C        0.04740    0.93290    0.06750    1.000
    C130     C        0.13110    0.92970    0.13970    1.000
    H90      H        0.16240    0.87550    0.21100    1.000
    C131     C        0.79930    0.73010    0.98280    1.000
    C132     C        0.79890    0.74980    0.90520    1.000
    H91      H        0.03870    0.54700    0.32230    1.000
    C133     C        0.10900    0.54870    0.40490    1.000
    H92      H        0.17890    0.56280    0.47410    1.000
    H93      H        0.01820    0.94670    0.03070    1.000
    C134     C        0.08940    0.95140    0.08700    1.000
    H94      H        0.15910    0.94120    0.15320    1.000
    C135     C        0.74950    0.73120    0.93150    1.000
    H95      H        0.81410    0.72130    0.02640    1.000
    H96      H        0.81460    0.75700    0.89170    1.000
    C136     C        0.74980    0.74850    0.85700    1.000
    C137     C        0.11100    0.50780    0.44240    1.000
    C138     C        0.08600    0.99080    0.04840    1.000
    H97      H        0.73310    0.72260    0.94360    1.000
    H98      H        0.73380    0.75230    0.81170    1.000
    C139     C        0.13120    0.51860    0.50770    1.000
    C140     C        0.07920    0.47110    0.40450    1.000
    C141     C        0.11410    0.02920    0.08180    1.000
    C142     C        0.04960    0.99510    0.97750    1.000
    C143     C        0.14000    0.48000    0.54550    1.000
    O33      O        0.16990    0.54960    0.54130    1.000
    C144     C        0.08510    0.43410    0.45400    1.000
    H99      H        0.05780    0.46830    0.35760    1.000
    C145     C        0.10460    0.07130    0.03150    1.000
    H100     H        0.13680    0.03180    0.12880    1.000
    C146     C        0.05290    0.02650    0.94250    1.000
    O34      O        0.01520    0.96150    0.93820    1.000
    H101     H        0.16620    0.48180    0.59190    1.000
    C147     C        0.11160    0.43640    0.51920    1.000
    C148     C        0.20830    0.55100    0.62000    1.000
    O35      O        0.04820    0.39050    0.40300    1.000
    C149     C        0.08910    0.06440    0.97650    1.000
    O36      O        0.13740    0.09200    0.07310    1.000
    H102     H        0.03140    0.02370    0.89570    1.000
    C150     C        0.10980    0.39890    0.55530    1.000
    H103     H        0.20000    0.53060    0.63940    1.000
    H104     H        0.21470    0.58390    0.63740    1.000
    C151     C        0.24920    0.53000    0.63090    1.000
    C152     C        0.01330    0.38840    0.33030    1.000
    C153     C        0.09200    0.10140    0.94120    1.000
    C154     C        0.06800    0.38110    0.53130    1.000
    C155     C        0.15170    0.38160    0.61650    1.000
    H105     H        0.27230    0.52330    0.67910    1.000
    H106     H        0.23670    0.49820    0.60970    1.000
    C156     C        0.28190    0.54140    0.61890    1.000
    H107     H        0.02490    0.40040    0.31060    1.000
    H108     H        0.98350    0.40390    0.30950    1.000
    C157     C        0.01140    0.33020    0.33150    1.000
    C158     C        0.05090    0.12430    0.88180    1.000
    C159     C        0.13450    0.11280    0.96100    1.000
    C160     C        0.06610    0.34970    0.57000    1.000
    H109     H        0.03990    0.38990    0.48800    1.000
    H110     H        0.18070    0.39090    0.63180    1.000
    C161     C        0.15060    0.34990    0.65570    1.000
    H111     H        0.27490    0.51720    0.58720    1.000
    H112     H        0.31430    0.53550    0.66150    1.000
    C162     C        0.28180    0.57960    0.59920    1.000
    H113     H        0.98490    0.32290    0.28390    1.000
    H114     H        0.99900    0.32530    0.35190    1.000
    C163     C        0.05190    0.15670    0.84460    1.000
    H115     H        0.02170    0.11710    0.86730    1.000
    H116     H        0.16260    0.09940    0.00050    1.000
    C164     C        0.13610    0.14430    0.92270    1.000
    H117     H        0.03690    0.33960    0.55360    1.000
    C165     C        0.10790    0.33390    0.63260    1.000
    H118     H        0.17890    0.33960    0.69770    1.000
    H119     H        0.30440    0.57930    0.59510    1.000
    H120     H        0.25060    0.58610    0.55580    1.000
    H121     H        0.29030    0.60450    0.63060    1.000
    C166     C        0.09649    0.16576    0.86640    1.000
    H122     H        0.02440    0.17200    0.80660    1.000
    H123     H        0.16510    0.15060    0.93630    1.000
    C167     C        0.10690    0.30130    0.67460    1.000
    C168     C        0.09864    0.19898    0.82420    1.000
    Zn7      Zn       0.54856    0.24687    0.19540    1.000
    N7       N        0.47671    0.24136    0.12140    1.000
    O37      O        0.56415    0.18387    0.24764    1.000
    O38      O        0.55517    0.31128    0.16520    1.000
    O39      O        0.56745    0.21225    0.15098    1.000
    O40      O        0.56005    0.28401    0.27010    1.000
    C169     C        0.45121    0.21790    0.13130    1.000
    C170     C        0.45130    0.26280    0.06170    1.000
    C171     C        0.60400    0.17053    0.30060    1.000
    C172     C        0.59350    0.32854    0.18840    1.000
    H124     H        0.46760    0.20230    0.17250    1.000
    C173     C        0.40259    0.21620    0.08350    1.000
    C174     C        0.40260    0.26240    0.01190    1.000
    H125     H        0.46760    0.27910    0.05300    1.000
    C175     C        0.60590    0.12560    0.33420    1.000
    O41      O        0.64289    0.19154    0.33030    1.000
    C176     C        0.59210    0.37190    0.15460    1.000
    O42      O        0.63448    0.31153    0.23920    1.000
    O43      O        0.64566    0.21099    0.23150    1.000
    O44      O        0.63898    0.29266    0.34734    1.000
    H126     H        0.38650    0.19910    0.09190    1.000
    C177     C        0.37764    0.24000    0.02260    1.000
    H127     H        0.38690    0.27750    0.97070    1.000
    C178     C        0.56550    0.10120    0.30700    1.000
    C179     C        0.64850    0.10960    0.39610    1.000
    Zn8      Zn       0.65291    0.25320    0.29923    1.000
    C180     C        0.54870    0.39530    0.10170    1.000
    C181     C        0.63320    0.38970    0.17470    1.000
    C182     C        0.32460    0.24100    0.97080    1.000
    H128     H        0.53670    0.11010    0.26460    1.000
    C183     C        0.56670    0.06300    0.34180    1.000
    C184     C        0.65010    0.07200    0.43200    1.000
    H129     H        0.67670    0.12430    0.41410    1.000
    N8       N        0.72547    0.25758    0.37180    1.000
    H130     H        0.52100    0.38530    0.08990    1.000
    C185     C        0.54740    0.43290    0.06750    1.000
    C186     C        0.63110    0.42970    0.13970    1.000
    H131     H        0.66240    0.37550    0.21100    1.000
    C187     C        0.29930    0.23010    0.98280    1.000
    C188     C        0.29890    0.24980    0.90520    1.000
    H132     H        0.53870    0.04700    0.32230    1.000
    C189     C        0.60900    0.04870    0.40490    1.000
    H133     H        0.67890    0.06280    0.47410    1.000
    H134     H        0.51820    0.44670    0.03070    1.000
    C190     C        0.58940    0.45140    0.08700    1.000
    H135     H        0.65910    0.44120    0.15320    1.000
    C191     C        0.24950    0.23120    0.93150    1.000
    H136     H        0.31410    0.22130    0.02640    1.000
    H137     H        0.31460    0.25700    0.89170    1.000
    C192     C        0.24980    0.24850    0.85700    1.000
    C193     C        0.61100    0.00780    0.44240    1.000
    C194     C        0.58600    0.49080    0.04840    1.000
    H138     H        0.23310    0.22260    0.94360    1.000
    H139     H        0.23380    0.25230    0.81170    1.000
    C195     C        0.63120    0.01860    0.50770    1.000
    C196     C        0.57920    0.97110    0.40450    1.000
    C197     C        0.61410    0.52920    0.08180    1.000
    C198     C        0.54960    0.49510    0.97750    1.000
    C199     C        0.64000    0.98000    0.54550    1.000
    O45      O        0.66990    0.04960    0.54130    1.000
    C200     C        0.58510    0.93410    0.45400    1.000
    H140     H        0.55780    0.96830    0.35760    1.000
    C201     C        0.60460    0.57130    0.03150    1.000
    H141     H        0.63680    0.53180    0.12880    1.000
    C202     C        0.55290    0.52650    0.94250    1.000
    O46      O        0.51520    0.46150    0.93820    1.000
    H142     H        0.66620    0.98180    0.59190    1.000
    C203     C        0.61160    0.93640    0.51920    1.000
    C204     C        0.70830    0.05100    0.62000    1.000
    O47      O        0.54820    0.89050    0.40300    1.000
    C205     C        0.58910    0.56440    0.97650    1.000
    O48      O        0.63740    0.59200    0.07310    1.000
    H143     H        0.53140    0.52370    0.89570    1.000
    C206     C        0.60980    0.89890    0.55530    1.000
    H144     H        0.70000    0.03060    0.63940    1.000
    H145     H        0.71470    0.08390    0.63740    1.000
    C207     C        0.74920    0.03000    0.63090    1.000
    C208     C        0.51330    0.88840    0.33030    1.000
    C209     C        0.59200    0.60140    0.94120    1.000
    C210     C        0.56800    0.88110    0.53130    1.000
    C211     C        0.65170    0.88160    0.61650    1.000
    H146     H        0.77230    0.02330    0.67910    1.000
    H147     H        0.73670    0.99820    0.60970    1.000
    C212     C        0.78190    0.04140    0.61890    1.000
    H148     H        0.52490    0.90040    0.31060    1.000
    H149     H        0.48350    0.90390    0.30950    1.000
    C213     C        0.51140    0.83020    0.33150    1.000
    C214     C        0.55090    0.62430    0.88180    1.000
    C215     C        0.63450    0.61280    0.96100    1.000
    C216     C        0.56610    0.84970    0.57000    1.000
    H150     H        0.53990    0.88990    0.48800    1.000
    H151     H        0.68070    0.89090    0.63180    1.000
    C217     C        0.65060    0.84990    0.65570    1.000
    H152     H        0.77490    0.01720    0.58720    1.000
    H153     H        0.81430    0.03550    0.66150    1.000
    C218     C        0.78180    0.07960    0.59920    1.000
    H154     H        0.48490    0.82290    0.28390    1.000
    H155     H        0.49900    0.82530    0.35190    1.000
    C219     C        0.55190    0.65670    0.84460    1.000
    H156     H        0.52170    0.61710    0.86730    1.000
    H157     H        0.66260    0.59940    0.00050    1.000
    C220     C        0.63610    0.64430    0.92270    1.000
    H158     H        0.53690    0.83960    0.55360    1.000
    C221     C        0.60790    0.83390    0.63260    1.000
    H159     H        0.67890    0.83960    0.69770    1.000
    H160     H        0.80440    0.07930    0.59510    1.000
    H161     H        0.75060    0.08610    0.55580    1.000
    H162     H        0.79030    0.10450    0.63060    1.000
    C222     C        0.59649    0.66576    0.86640    1.000
    H163     H        0.52440    0.67200    0.80660    1.000
    H164     H        0.66510    0.65060    0.93630    1.000
    C223     C        0.60690    0.80130    0.67460    1.000
    C224     C        0.59864    0.69898    0.82420    1.000
    Zn9      Zn       0.95144    0.25313    0.80460    1.000
    N9       N        0.02329    0.25864    0.87860    1.000
    O49      O        0.93585    0.31613    0.75236    1.000
    O50      O        0.94483    0.18872    0.83480    1.000
    O51      O        0.93255    0.28775    0.84902    1.000
    O52      O        0.93995    0.21599    0.72990    1.000
    C225     C        0.04879    0.28210    0.86870    1.000
    C226     C        0.04870    0.23720    0.93830    1.000
    C227     C        0.89600    0.32947    0.69940    1.000
    C228     C        0.90650    0.17146    0.81160    1.000
    H165     H        0.03240    0.29770    0.82750    1.000
    C229     C        0.09741    0.28380    0.91650    1.000
    C230     C        0.09740    0.23760    0.98810    1.000
    H166     H        0.03240    0.22090    0.94700    1.000
    C231     C        0.89410    0.37440    0.66580    1.000
    O53      O        0.85711    0.30846    0.66970    1.000
    C232     C        0.90790    0.12810    0.84540    1.000
    O54      O        0.86552    0.18847    0.76080    1.000
    O55      O        0.85434    0.28901    0.76850    1.000
    O56      O        0.86102    0.20734    0.65266    1.000
    H167     H        0.11350    0.30090    0.90810    1.000
    C233     C        0.12236    0.26000    0.97740    1.000
    H168     H        0.11310    0.22250    0.02930    1.000
    C234     C        0.93450    0.39880    0.69300    1.000
    C235     C        0.85150    0.39040    0.60390    1.000
    Zn10     Zn       0.84709    0.24680    0.70077    1.000
    C236     C        0.95130    0.10470    0.89830    1.000
    C237     C        0.86680    0.11030    0.82530    1.000
    C238     C        0.17540    0.25900    0.02920    1.000
    H169     H        0.96330    0.38990    0.73540    1.000
    C239     C        0.93330    0.43700    0.65820    1.000
    C240     C        0.84990    0.42800    0.56800    1.000
    H170     H        0.82330    0.37570    0.58590    1.000
    N10      N        0.77453    0.24242    0.62820    1.000
    H171     H        0.97900    0.11470    0.91010    1.000
    C241     C        0.95260    0.06710    0.93250    1.000
    C242     C        0.86890    0.07030    0.86030    1.000
    H172     H        0.83760    0.12450    0.78900    1.000
    C243     C        0.20070    0.26990    0.01720    1.000
    C244     C        0.20110    0.25020    0.09480    1.000
    H173     H        0.96130    0.45300    0.67770    1.000
    C245     C        0.89100    0.45130    0.59510    1.000
    H174     H        0.82110    0.43720    0.52590    1.000
    H175     H        0.98180    0.05330    0.96930    1.000
    C246     C        0.91060    0.04860    0.91300    1.000
    H176     H        0.84090    0.05880    0.84680    1.000
    C247     C        0.25050    0.26880    0.06850    1.000
    H177     H        0.18590    0.27870    0.97360    1.000
    H178     H        0.18540    0.24300    0.10830    1.000
    C248     C        0.25020    0.25150    0.14300    1.000
    C249     C        0.88900    0.49220    0.55760    1.000
    C250     C        0.91400    0.00920    0.95160    1.000
    H179     H        0.26690    0.27740    0.05640    1.000
    H180     H        0.26620    0.24770    0.18830    1.000
    C251     C        0.86880    0.48140    0.49230    1.000
    C252     C        0.92080    0.52890    0.59550    1.000
    C253     C        0.88590    0.97080    0.91820    1.000
    C254     C        0.95040    0.00490    0.02250    1.000
    C255     C        0.86000    0.52000    0.45450    1.000
    O57      O        0.83010    0.45040    0.45870    1.000
    C256     C        0.91490    0.56590    0.54600    1.000
    H181     H        0.94220    0.53170    0.64240    1.000
    C257     C        0.89540    0.92870    0.96850    1.000
    H182     H        0.86320    0.96820    0.87120    1.000
    C258     C        0.94710    0.97350    0.05750    1.000
    O58      O        0.98480    0.03850    0.06180    1.000
    H183     H        0.83380    0.51820    0.40810    1.000
    C259     C        0.88840    0.56360    0.48080    1.000
    C260     C        0.79170    0.44900    0.38000    1.000
    O59      O        0.95180    0.60950    0.59700    1.000
    C261     C        0.91090    0.93560    0.02350    1.000
    O60      O        0.86260    0.90800    0.92690    1.000
    H184     H        0.96860    0.97630    0.10430    1.000
    C262     C        0.89020    0.60110    0.44470    1.000
    H185     H        0.80000    0.46940    0.36060    1.000
    H186     H        0.78530    0.41610    0.36260    1.000
    C263     C        0.75080    0.47000    0.36910    1.000
    C264     C        0.98670    0.61160    0.66970    1.000
    C265     C        0.90800    0.89860    0.05880    1.000
    C266     C        0.93200    0.61890    0.46870    1.000
    C267     C        0.84830    0.61840    0.38350    1.000
    H187     H        0.72770    0.47670    0.32090    1.000
    H188     H        0.76330    0.50180    0.39030    1.000
    C268     C        0.71810    0.45860    0.38110    1.000
    H189     H        0.97510    0.59960    0.68940    1.000
    H190     H        0.01650    0.59610    0.69050    1.000
    C269     C        0.98860    0.66980    0.66850    1.000
    C270     C        0.94910    0.87570    0.11820    1.000
    C271     C        0.86550    0.88720    0.03900    1.000
    C272     C        0.93390    0.65030    0.43000    1.000
    H191     H        0.96010    0.61010    0.51200    1.000
    H192     H        0.81930    0.60910    0.36820    1.000
    C273     C        0.84940    0.65010    0.34430    1.000
    H193     H        0.72510    0.48280    0.41280    1.000
    H194     H        0.68570    0.46450    0.33850    1.000
    C274     C        0.71820    0.42040    0.40080    1.000
    H195     H        0.01510    0.67710    0.71610    1.000
    H196     H        0.00100    0.67470    0.64810    1.000
    C275     C        0.94810    0.84330    0.15540    1.000
    H197     H        0.97830    0.88290    0.13270    1.000
    H198     H        0.83740    0.90060    0.99950    1.000
    C276     C        0.86390    0.85570    0.07730    1.000
    H199     H        0.96310    0.66040    0.44640    1.000
    C277     C        0.89210    0.66610    0.36740    1.000
    H200     H        0.82110    0.66040    0.30230    1.000
    H201     H        0.69560    0.42070    0.40490    1.000
    H202     H        0.74940    0.41390    0.44420    1.000
    H203     H        0.70970    0.39550    0.36940    1.000
    C278     C        0.90351    0.83424    0.13360    1.000
    H204     H        0.97560    0.82800    0.19340    1.000
    H205     H        0.83490    0.84940    0.06370    1.000
    C279     C        0.89310    0.69870    0.32540    1.000
    C280     C        0.90136    0.80102    0.17580    1.000
    Zn11     Zn       0.45144    0.75313    0.80460    1.000
    N11      N        0.52329    0.75864    0.87860    1.000
    O61      O        0.43585    0.81613    0.75236    1.000
    O62      O        0.44483    0.68872    0.83480    1.000
    O63      O        0.43255    0.78775    0.84902    1.000
    O64      O        0.43995    0.71599    0.72990    1.000
    C281     C        0.54879    0.78210    0.86870    1.000
    C282     C        0.54870    0.73720    0.93830    1.000
    C283     C        0.39600    0.82947    0.69940    1.000
    C284     C        0.40650    0.67146    0.81160    1.000
    H206     H        0.53240    0.79770    0.82750    1.000
    C285     C        0.59741    0.78380    0.91650    1.000
    C286     C        0.59740    0.73760    0.98810    1.000
    H207     H        0.53240    0.72090    0.94700    1.000
    C287     C        0.39410    0.87440    0.66580    1.000
    O65      O        0.35711    0.80846    0.66970    1.000
    C288     C        0.40790    0.62810    0.84540    1.000
    O66      O        0.36552    0.68847    0.76080    1.000
    O67      O        0.35434    0.78901    0.76850    1.000
    O68      O        0.36102    0.70734    0.65266    1.000
    H208     H        0.61350    0.80090    0.90810    1.000
    C289     C        0.62236    0.76000    0.97740    1.000
    H209     H        0.61310    0.72250    0.02930    1.000
    C290     C        0.43450    0.89880    0.69300    1.000
    C291     C        0.35150    0.89040    0.60390    1.000
    Zn12     Zn       0.34709    0.74680    0.70077    1.000
    C292     C        0.45130    0.60470    0.89830    1.000
    C293     C        0.36680    0.61030    0.82530    1.000
    C294     C        0.67540    0.75900    0.02920    1.000
    H210     H        0.46330    0.88990    0.73540    1.000
    C295     C        0.43330    0.93700    0.65820    1.000
    C296     C        0.34990    0.92800    0.56800    1.000
    H211     H        0.32330    0.87570    0.58590    1.000
    N12      N        0.27453    0.74242    0.62820    1.000
    H212     H        0.47900    0.61470    0.91010    1.000
    C297     C        0.45260    0.56710    0.93250    1.000
    C298     C        0.36890    0.57030    0.86030    1.000
    H213     H        0.33760    0.62450    0.78900    1.000
    C299     C        0.70070    0.76990    0.01720    1.000
    C300     C        0.70110    0.75020    0.09480    1.000
    H214     H        0.46130    0.95300    0.67770    1.000
    C301     C        0.39100    0.95130    0.59510    1.000
    H215     H        0.32110    0.93720    0.52590    1.000
    H216     H        0.48180    0.55330    0.96930    1.000
    C302     C        0.41060    0.54860    0.91300    1.000
    H217     H        0.34090    0.55880    0.84680    1.000
    C303     C        0.75050    0.76880    0.06850    1.000
    H218     H        0.68590    0.77870    0.97360    1.000
    H219     H        0.68540    0.74300    0.10830    1.000
    C304     C        0.75020    0.75150    0.14300    1.000
    C305     C        0.38900    0.99220    0.55760    1.000
    C306     C        0.41400    0.50920    0.95160    1.000
    H220     H        0.76690    0.77740    0.05640    1.000
    H221     H        0.76620    0.74770    0.18830    1.000
    C307     C        0.36880    0.98140    0.49230    1.000
    C308     C        0.42080    0.02890    0.59550    1.000
    C309     C        0.38590    0.47080    0.91820    1.000
    C310     C        0.45040    0.50490    0.02250    1.000
    C311     C        0.36000    0.02000    0.45450    1.000
    O69      O        0.33010    0.95040    0.45870    1.000
    C312     C        0.41490    0.06590    0.54600    1.000
    H222     H        0.44220    0.03170    0.64240    1.000
    C313     C        0.39540    0.42870    0.96850    1.000
    H223     H        0.36320    0.46820    0.87120    1.000
    C314     C        0.44710    0.47350    0.05750    1.000
    O70      O        0.48480    0.53850    0.06180    1.000
    H224     H        0.33380    0.01820    0.40810    1.000
    C315     C        0.38840    0.06360    0.48080    1.000
    C316     C        0.29170    0.94900    0.38000    1.000
    O71      O        0.45180    0.10950    0.59700    1.000
    C317     C        0.41090    0.43560    0.02350    1.000
    O72      O        0.36260    0.40800    0.92690    1.000
    H225     H        0.46860    0.47630    0.10430    1.000
    C318     C        0.39020    0.10110    0.44470    1.000
    H226     H        0.30000    0.96940    0.36060    1.000
    H227     H        0.28530    0.91610    0.36260    1.000
    C319     C        0.25080    0.97000    0.36910    1.000
    C320     C        0.48670    0.11160    0.66970    1.000
    C321     C        0.40800    0.39860    0.05880    1.000
    C322     C        0.43200    0.11890    0.46870    1.000
    C323     C        0.34830    0.11840    0.38350    1.000
    H228     H        0.22770    0.97670    0.32090    1.000
    H229     H        0.26330    0.00180    0.39030    1.000
    C324     C        0.21810    0.95860    0.38110    1.000
    H230     H        0.47510    0.09960    0.68940    1.000
    H231     H        0.51650    0.09610    0.69050    1.000
    C325     C        0.48860    0.16980    0.66850    1.000
    C326     C        0.44910    0.37570    0.11820    1.000
    C327     C        0.36550    0.38720    0.03900    1.000
    C328     C        0.43390    0.15030    0.43000    1.000
    H232     H        0.46010    0.11010    0.51200    1.000
    H233     H        0.31930    0.10910    0.36820    1.000
    C329     C        0.34940    0.15010    0.34430    1.000
    H234     H        0.22510    0.98280    0.41280    1.000
    H235     H        0.18570    0.96450    0.33850    1.000
    C330     C        0.21820    0.92040    0.40080    1.000
    H236     H        0.51510    0.17710    0.71610    1.000
    H237     H        0.50100    0.17470    0.64810    1.000
    C331     C        0.44810    0.34330    0.15540    1.000
    H238     H        0.47830    0.38290    0.13270    1.000
    H239     H        0.33740    0.40060    0.99950    1.000
    C332     C        0.36390    0.35570    0.07730    1.000
    H240     H        0.46310    0.16040    0.44640    1.000
    C333     C        0.39210    0.16610    0.36740    1.000
    H241     H        0.32110    0.16040    0.30230    1.000
    H242     H        0.19560    0.92070    0.40490    1.000
    H243     H        0.24940    0.91390    0.44420    1.000
    H244     H        0.20970    0.89550    0.36940    1.000
    C334     C        0.40351    0.33424    0.13360    1.000
    H245     H        0.47560    0.32800    0.19340    1.000
    H246     H        0.33490    0.34940    0.06370    1.000
    C335     C        0.39310    0.19870    0.32540    1.000
    C336     C        0.40136    0.30102    0.17580    1.000
    Zn13     Zn       0.95144    0.74687    0.30460    1.000
    N13      N        0.02329    0.74136    0.37860    1.000
    O73      O        0.93585    0.68387    0.25236    1.000
    O74      O        0.94483    0.81128    0.33480    1.000
    O75      O        0.93255    0.71225    0.34902    1.000
    O76      O        0.93995    0.78401    0.22990    1.000
    C337     C        0.04879    0.71790    0.36870    1.000
    C338     C        0.04870    0.76280    0.43830    1.000
    C339     C        0.89600    0.67053    0.19940    1.000
    C340     C        0.90650    0.82854    0.31160    1.000
    H247     H        0.03240    0.70230    0.32750    1.000
    C341     C        0.09741    0.71620    0.41650    1.000
    C342     C        0.09740    0.76240    0.48810    1.000
    H248     H        0.03240    0.77910    0.44700    1.000
    C343     C        0.89410    0.62560    0.16580    1.000
    O77      O        0.85711    0.69154    0.16970    1.000
    C344     C        0.90790    0.87190    0.34540    1.000
    O78      O        0.86552    0.81153    0.26080    1.000
    O79      O        0.85434    0.71099    0.26850    1.000
    O80      O        0.86102    0.79266    0.15266    1.000
    H249     H        0.11350    0.69910    0.40810    1.000
    C345     C        0.12236    0.74000    0.47740    1.000
    H250     H        0.11310    0.77750    0.52930    1.000
    C346     C        0.93450    0.60120    0.19300    1.000
    C347     C        0.85150    0.60960    0.10390    1.000
    Zn14     Zn       0.84709    0.75320    0.20077    1.000
    C348     C        0.95130    0.89530    0.39830    1.000
    C349     C        0.86680    0.88970    0.32530    1.000
    C350     C        0.17540    0.74100    0.52920    1.000
    H251     H        0.96330    0.61010    0.23540    1.000
    C351     C        0.93330    0.56300    0.15820    1.000
    C352     C        0.84990    0.57200    0.06800    1.000
    H252     H        0.82330    0.62430    0.08590    1.000
    N14      N        0.77453    0.75758    0.12820    1.000
    H253     H        0.97900    0.88530    0.41010    1.000
    C353     C        0.95260    0.93290    0.43250    1.000
    C354     C        0.86890    0.92970    0.36030    1.000
    H254     H        0.83760    0.87550    0.28900    1.000
    C355     C        0.20070    0.73010    0.51720    1.000
    C356     C        0.20110    0.74980    0.59480    1.000
    H255     H        0.96130    0.54700    0.17770    1.000
    C357     C        0.89100    0.54870    0.09510    1.000
    H256     H        0.82110    0.56280    0.02590    1.000
    H257     H        0.98180    0.94670    0.46930    1.000
    C358     C        0.91060    0.95140    0.41300    1.000
    H258     H        0.84090    0.94120    0.34680    1.000
    C359     C        0.25050    0.73120    0.56850    1.000
    H259     H        0.18590    0.72130    0.47360    1.000
    H260     H        0.18540    0.75700    0.60830    1.000
    C360     C        0.25020    0.74850    0.64300    1.000
    C361     C        0.88900    0.50780    0.05760    1.000
    C362     C        0.91400    0.99080    0.45160    1.000
    H261     H        0.26690    0.72260    0.55640    1.000
    H262     H        0.26620    0.75230    0.68830    1.000
    C363     C        0.86880    0.51860    0.99230    1.000
    C364     C        0.92080    0.47110    0.09550    1.000
    C365     C        0.88590    0.02920    0.41820    1.000
    C366     C        0.95040    0.99510    0.52250    1.000
    C367     C        0.86000    0.48000    0.95450    1.000
    O81      O        0.83010    0.54960    0.95870    1.000
    C368     C        0.91490    0.43410    0.04600    1.000
    H263     H        0.94220    0.46830    0.14240    1.000
    C369     C        0.89540    0.07130    0.46850    1.000
    H264     H        0.86320    0.03180    0.37120    1.000
    C370     C        0.94710    0.02650    0.55750    1.000
    O82      O        0.98480    0.96150    0.56180    1.000
    H265     H        0.83380    0.48180    0.90810    1.000
    C371     C        0.88840    0.43640    0.98080    1.000
    C372     C        0.79170    0.55100    0.88000    1.000
    O83      O        0.95180    0.39050    0.09700    1.000
    C373     C        0.91090    0.06440    0.52350    1.000
    O84      O        0.86260    0.09200    0.42690    1.000
    H266     H        0.96860    0.02370    0.60430    1.000
    C374     C        0.89020    0.39890    0.94470    1.000
    H267     H        0.80000    0.53060    0.86060    1.000
    H268     H        0.78530    0.58390    0.86260    1.000
    C375     C        0.75080    0.53000    0.86910    1.000
    C376     C        0.98670    0.38840    0.16970    1.000
    C377     C        0.90800    0.10140    0.55880    1.000
    C378     C        0.93200    0.38110    0.96870    1.000
    C379     C        0.84830    0.38160    0.88350    1.000
    H269     H        0.72770    0.52330    0.82090    1.000
    H270     H        0.76330    0.49820    0.89030    1.000
    C380     C        0.71810    0.54140    0.88110    1.000
    H271     H        0.97510    0.40040    0.18940    1.000
    H272     H        0.01650    0.40390    0.19050    1.000
    C381     C        0.98860    0.33020    0.16850    1.000
    C382     C        0.94910    0.12430    0.61820    1.000
    C383     C        0.86550    0.11280    0.53900    1.000
    C384     C        0.93390    0.34970    0.93000    1.000
    H273     H        0.96010    0.38990    0.01200    1.000
    H274     H        0.81930    0.39090    0.86820    1.000
    C385     C        0.84940    0.34990    0.84430    1.000
    H275     H        0.72510    0.51720    0.91280    1.000
    H276     H        0.68570    0.53550    0.83850    1.000
    C386     C        0.71820    0.57960    0.90080    1.000
    H277     H        0.01510    0.32290    0.21610    1.000
    H278     H        0.00100    0.32530    0.14810    1.000
    C387     C        0.94810    0.15670    0.65540    1.000
    H279     H        0.97830    0.11710    0.63270    1.000
    H280     H        0.83740    0.09940    0.49950    1.000
    C388     C        0.86390    0.14430    0.57730    1.000
    H281     H        0.96310    0.33960    0.94640    1.000
    C389     C        0.89210    0.33390    0.86740    1.000
    H282     H        0.82110    0.33960    0.80230    1.000
    H283     H        0.69560    0.57930    0.90490    1.000
    H284     H        0.74940    0.58610    0.94420    1.000
    H285     H        0.70970    0.60450    0.86940    1.000
    C390     C        0.90351    0.16576    0.63360    1.000
    H286     H        0.97560    0.17200    0.69340    1.000
    H287     H        0.83490    0.15060    0.56370    1.000
    C391     C        0.89310    0.30130    0.82540    1.000
    C392     C        0.90136    0.19898    0.67580    1.000
    Zn15     Zn       0.45144    0.24687    0.30460    1.000
    N15      N        0.52329    0.24136    0.37860    1.000
    O85      O        0.43585    0.18387    0.25236    1.000
    O86      O        0.44483    0.31128    0.33480    1.000
    O87      O        0.43255    0.21225    0.34902    1.000
    O88      O        0.43995    0.28401    0.22990    1.000
    C393     C        0.54879    0.21790    0.36870    1.000
    C394     C        0.54870    0.26280    0.43830    1.000
    C395     C        0.39600    0.17053    0.19940    1.000
    C396     C        0.40650    0.32854    0.31160    1.000
    H288     H        0.53240    0.20230    0.32750    1.000
    C397     C        0.59741    0.21620    0.41650    1.000
    C398     C        0.59740    0.26240    0.48810    1.000
    H289     H        0.53240    0.27910    0.44700    1.000
    C399     C        0.39410    0.12560    0.16580    1.000
    O89      O        0.35711    0.19154    0.16970    1.000
    C400     C        0.40790    0.37190    0.34540    1.000
    O90      O        0.36552    0.31153    0.26080    1.000
    O91      O        0.35434    0.21099    0.26850    1.000
    O92      O        0.36102    0.29266    0.15266    1.000
    H290     H        0.61350    0.19910    0.40810    1.000
    C401     C        0.62236    0.24000    0.47740    1.000
    H291     H        0.61310    0.27750    0.52930    1.000
    C402     C        0.43450    0.10120    0.19300    1.000
    C403     C        0.35150    0.10960    0.10390    1.000
    Zn16     Zn       0.34709    0.25320    0.20077    1.000
    C404     C        0.45130    0.39530    0.39830    1.000
    C405     C        0.36680    0.38970    0.32530    1.000
    C406     C        0.67540    0.24100    0.52920    1.000
    H292     H        0.46330    0.11010    0.23540    1.000
    C407     C        0.43330    0.06300    0.15820    1.000
    C408     C        0.34990    0.07200    0.06800    1.000
    H293     H        0.32330    0.12430    0.08590    1.000
    N16      N        0.27453    0.25758    0.12820    1.000
    H294     H        0.47900    0.38530    0.41010    1.000
    C409     C        0.45260    0.43290    0.43250    1.000
    C410     C        0.36890    0.42970    0.36030    1.000
    H295     H        0.33760    0.37550    0.28900    1.000
    C411     C        0.70070    0.23010    0.51720    1.000
    C412     C        0.70110    0.24980    0.59480    1.000
    H296     H        0.46130    0.04700    0.17770    1.000
    C413     C        0.39100    0.04870    0.09510    1.000
    H297     H        0.32110    0.06280    0.02590    1.000
    H298     H        0.48180    0.44670    0.46930    1.000
    C414     C        0.41060    0.45140    0.41300    1.000
    H299     H        0.34090    0.44120    0.34680    1.000
    C415     C        0.75050    0.23120    0.56850    1.000
    H300     H        0.68590    0.22130    0.47360    1.000
    H301     H        0.68540    0.25700    0.60830    1.000
    C416     C        0.75020    0.24850    0.64300    1.000
    C417     C        0.38900    0.00780    0.05760    1.000
    C418     C        0.41400    0.49080    0.45160    1.000
    H302     H        0.76690    0.22260    0.55640    1.000
    H303     H        0.76620    0.25230    0.68830    1.000
    C419     C        0.36880    0.01860    0.99230    1.000
    C420     C        0.42080    0.97110    0.09550    1.000
    C421     C        0.38590    0.52920    0.41820    1.000
    C422     C        0.45040    0.49510    0.52250    1.000
    C423     C        0.36000    0.98000    0.95450    1.000
    O93      O        0.33010    0.04960    0.95870    1.000
    C424     C        0.41490    0.93410    0.04600    1.000
    H304     H        0.44220    0.96830    0.14240    1.000
    C425     C        0.39540    0.57130    0.46850    1.000
    H305     H        0.36320    0.53180    0.37120    1.000
    C426     C        0.44710    0.52650    0.55750    1.000
    O94      O        0.48480    0.46150    0.56180    1.000
    H306     H        0.33380    0.98180    0.90810    1.000
    C427     C        0.38840    0.93640    0.98080    1.000
    C428     C        0.29170    0.05100    0.88000    1.000
    O95      O        0.45180    0.89050    0.09700    1.000
    C429     C        0.41090    0.56440    0.52350    1.000
    O96      O        0.36260    0.59200    0.42690    1.000
    H307     H        0.46860    0.52370    0.60430    1.000
    C430     C        0.39020    0.89890    0.94470    1.000
    H308     H        0.30000    0.03060    0.86060    1.000
    H309     H        0.28530    0.08390    0.86260    1.000
    C431     C        0.25080    0.03000    0.86910    1.000
    C432     C        0.48670    0.88840    0.16970    1.000
    C433     C        0.40800    0.60140    0.55880    1.000
    C434     C        0.43200    0.88110    0.96870    1.000
    C435     C        0.34830    0.88160    0.88350    1.000
    H310     H        0.22770    0.02330    0.82090    1.000
    H311     H        0.26330    0.99820    0.89030    1.000
    C436     C        0.21810    0.04140    0.88110    1.000
    H312     H        0.47510    0.90040    0.18940    1.000
    H313     H        0.51650    0.90390    0.19050    1.000
    C437     C        0.48860    0.83020    0.16850    1.000
    C438     C        0.44910    0.62430    0.61820    1.000
    C439     C        0.36550    0.61280    0.53900    1.000
    C440     C        0.43390    0.84970    0.93000    1.000
    H314     H        0.46010    0.88990    0.01200    1.000
    H315     H        0.31930    0.89090    0.86820    1.000
    C441     C        0.34940    0.84990    0.84430    1.000
    H316     H        0.22510    0.01720    0.91280    1.000
    H317     H        0.18570    0.03550    0.83850    1.000
    C442     C        0.21820    0.07960    0.90080    1.000
    H318     H        0.51510    0.82290    0.21610    1.000
    H319     H        0.50100    0.82530    0.14810    1.000
    C443     C        0.44810    0.65670    0.65540    1.000
    H320     H        0.47830    0.61710    0.63270    1.000
    H321     H        0.33740    0.59940    0.49950    1.000
    C444     C        0.36390    0.64430    0.57730    1.000
    H322     H        0.46310    0.83960    0.94640    1.000
    C445     C        0.39210    0.83390    0.86740    1.000
    H323     H        0.32110    0.83960    0.80230    1.000
    H324     H        0.19560    0.07930    0.90490    1.000
    H325     H        0.24940    0.08610    0.94420    1.000
    H326     H        0.20970    0.10450    0.86940    1.000
    C446     C        0.40351    0.66576    0.63360    1.000
    H327     H        0.47560    0.67200    0.69340    1.000
    H328     H        0.33490    0.65060    0.56370    1.000
    C447     C        0.39310    0.80130    0.82540    1.000
    C448     C        0.40136    0.69898    0.67580    1.000
