# CIF file generated by openbabel 3.1.0, see https://openbabel.org
data_I
_chemical_name_common 'PURSOK_clean'
_cell_length_a 9.726
_cell_length_b 9.911
_cell_length_c 10.45
_cell_angle_alpha 99.72
_cell_angle_beta 111.11
_cell_angle_gamma 108.42
_space_group_name_H-M_alt 'P 1'
_space_group_name_Hall 'P 1'
loop_
    _symmetry_equiv_pos_as_xyz
    x,y,z
loop_
    _atom_site_label
    _atom_site_type_symbol
    _atom_site_fract_x
    _atom_site_fract_y
    _atom_site_fract_z
    _atom_site_occupancy
    Zn1      Zn       0.42720    0.60260    0.78930    1.000
    Zn2      Zn       0.57280    0.39740    0.21070    1.000
    Zn3      Zn       0.50000    0.50000    0.50000    1.000
    H1       H        0.16740    0.05200    0.38870    1.000
    H2       H        0.02710    0.18780    0.68300    1.000
    H3       H        0.84760    0.57670    0.09680    1.000
    H4       H        0.93080    0.45260    0.75600    1.000
    H5       H        0.35430    0.74310    0.40140    1.000
    H6       H        0.66920    0.10640    0.74400    1.000
    H7       H        0.83260    0.94800    0.61130    1.000
    H8       H        0.97290    0.81220    0.31700    1.000
    H9       H        0.15240    0.42330    0.90320    1.000
    H10      H        0.06920    0.54740    0.24400    1.000
    H11      H        0.64570    0.25690    0.59860    1.000
    H12      H        0.33080    0.89360    0.25600    1.000
    C1       C        0.24630    0.30150    0.59120    1.000
    C2       C        0.11900    0.14520    0.54510    1.000
    C3       C        0.10040    0.03150    0.43420    1.000
    C4       C        0.01710    0.11250    0.60930    1.000
    C5       C        0.71280    0.52750    0.81060    1.000
    C6       C        0.86210    0.51430    0.90950    1.000
    C7       C        0.90820    0.54500    0.05740    1.000
    C8       C        0.95790    0.47090    0.85410    1.000
    C9       C        0.52750    0.81150    0.68130    1.000
    C10      C        0.51620    0.91000    0.58750    1.000
    C11      C        0.41350    0.84650    0.44140    1.000
    C12      C        0.60110    0.06320    0.64530    1.000
    C13      C        0.75370    0.69850    0.40880    1.000
    C14      C        0.88100    0.85480    0.45490    1.000
    C15      C        0.89960    0.96850    0.56580    1.000
    C16      C        0.98290    0.88750    0.39070    1.000
    C17      C        0.28720    0.47250    0.18940    1.000
    C18      C        0.13790    0.48570    0.09050    1.000
    C19      C        0.09180    0.45500    0.94260    1.000
    C20      C        0.04210    0.52910    0.14590    1.000
    C21      C        0.47250    0.18850    0.31870    1.000
    C22      C        0.48380    0.09000    0.41250    1.000
    C23      C        0.58650    0.15350    0.55860    1.000
    C24      C        0.39890    0.93680    0.35470    1.000
    O1       O        0.33170    0.32670    0.52590    1.000
    O2       O        0.25830    0.39640    0.69730    1.000
    O3       O        0.69180    0.52420    0.68540    1.000
    O4       O        0.61790    0.54100    0.86490    1.000
    O5       O        0.45560    0.66900    0.62150    1.000
    O6       O        0.59700    0.86650    0.81580    1.000
    O7       O        0.66830    0.67330    0.47410    1.000
    O8       O        0.74170    0.60360    0.30270    1.000
    O9       O        0.30820    0.47580    0.31460    1.000
    O10      O        0.38210    0.45900    0.13510    1.000
    O11      O        0.54440    0.33100    0.37850    1.000
    O12      O        0.40300    0.13350    0.18420    1.000
