# CIF file generated by openbabel 3.1.0, see https://openbabel.org
data_I
_chemical_name_common 'image0'
_cell_length_a 38.3513
_cell_length_b 38.3513
_cell_length_c 38.3513
_cell_angle_alpha 90
_cell_angle_beta 90
_cell_angle_gamma 90
_space_group_name_H-M_alt 'P 1'
_space_group_name_Hall 'P 1'
loop_
    _symmetry_equiv_pos_as_xyz
    x,y,z
loop_
    _atom_site_label
    _atom_site_type_symbol
    _atom_site_fract_x
    _atom_site_fract_y
    _atom_site_fract_z
    _atom_site_occupancy
    Sm1      Sm       0.25693    0.08890    0.24333    1.000
    O1       O        0.34240    0.03846    0.21930    1.000
    O2       O        0.31849    0.08729    0.23780    1.000
    O3       O        0.38257    0.19982    0.23898    1.000
    O4       O        0.43899    0.19990    0.23280    1.000
    O5       O        0.20050    0.06107    0.25120    1.000
    O6       O        0.20025    0.11683    0.24350    1.000
    O7       O        0.08739    0.18207    0.25522    1.000
    O8       O        0.05370    0.16060    0.29620    1.000
    O9       O        0.26763    0.02831    0.23015    1.000
    C1       C        0.34390    0.07071    0.22634    1.000
    C2       C        0.37640    0.09190    0.22010    1.000
    C3       C        0.37640    0.12670    0.23000    1.000
    H1       H        0.35660    0.13650    0.24010    1.000
    C4       C        0.40590    0.14710    0.22470    1.000
    C5       C        0.43540    0.13250    0.20960    1.000
    H2       H        0.45520    0.14610    0.20600    1.000
    C6       C        0.43540    0.09770    0.19970    1.000
    C7       C        0.40590    0.07730    0.20500    1.000
    H3       H        0.40590    0.05400    0.19840    1.000
    C8       C        0.41070    0.18419    0.23271    1.000
    C9       C        0.46860    0.08570    0.18360    1.000
    C10      C        0.46857    0.06200    0.15590    1.000
    H4       H        0.44750    0.05410    0.14680    1.000
    C11      C        0.18474    0.08946    0.25104    1.000
    C12      C        0.14685    0.09121    0.26000    1.000
    C13      C        0.12791    0.12210    0.25940    1.000
    H5       H        0.13760    0.14210    0.24970    1.000
    C14      C        0.09442    0.12313    0.27320    1.000
    C15      C        0.07987    0.09326    0.28770    1.000
    H6       H        0.05750    0.09390    0.29690    1.000
    C16      C        0.09880    0.06237    0.28830    1.000
    C17      C        0.13230    0.06134    0.27450    1.000
    H7       H        0.14500    0.04070    0.27500    1.000
    C18      C        0.07747    0.15810    0.27460    1.000
    C19      C        0.08170    0.03123    0.30290    1.000
    C20      C        0.05690    0.03153    0.32940    1.000
    H8       H        0.04870    0.05260    0.33820    1.000
    C21      C        0.37700    0.09230    0.22294    1.000
    C22      C        0.37920    0.12790    0.22915    1.000
    H9       H        0.35940    0.14030    0.23590    1.000
    C23      C        0.41080    0.14510    0.22525    1.000
    C24      C        0.44030    0.12660    0.21510    1.000
    H10      H        0.46150    0.13810    0.21250    1.000
    C25      C        0.43820    0.09100    0.20890    1.000
    C26      C        0.40650    0.07380    0.21283    1.000
    H11      H        0.40500    0.05000    0.20870    1.000
    C27      C        0.46861    0.07070    0.19820    1.000
    C28      C        0.46857    0.04200    0.17610    1.000
    H12      H        0.44750    0.03240    0.16870    1.000
    Sm2      Sm       0.75693    0.58890    0.74333    1.000
    O10      O        0.84240    0.53846    0.71930    1.000
    O11      O        0.81849    0.58729    0.73780    1.000
    O12      O        0.88257    0.69982    0.73898    1.000
    O13      O        0.93899    0.69990    0.73280    1.000
    O14      O        0.70050    0.56107    0.75120    1.000
    O15      O        0.70025    0.61683    0.74350    1.000
    O16      O        0.58739    0.68207    0.75522    1.000
    O17      O        0.55370    0.66060    0.79620    1.000
    O18      O        0.76763    0.52831    0.73015    1.000
    C29      C        0.84390    0.57071    0.72634    1.000
    C30      C        0.87640    0.59190    0.72010    1.000
    C31      C        0.87640    0.62670    0.73000    1.000
    H13      H        0.85660    0.63650    0.74010    1.000
    C32      C        0.90590    0.64710    0.72470    1.000
    C33      C        0.93540    0.63250    0.70960    1.000
    H14      H        0.95520    0.64610    0.70600    1.000
    C34      C        0.93540    0.59770    0.69970    1.000
    C35      C        0.90590    0.57730    0.70500    1.000
    H15      H        0.90590    0.55400    0.69840    1.000
    C36      C        0.91070    0.68419    0.73271    1.000
    C37      C        0.96860    0.58570    0.68360    1.000
    C38      C        0.96857    0.56200    0.65590    1.000
    H16      H        0.94750    0.55410    0.64680    1.000
    C39      C        0.68474    0.58946    0.75104    1.000
    C40      C        0.64685    0.59121    0.76000    1.000
    C41      C        0.62791    0.62210    0.75940    1.000
    H17      H        0.63760    0.64210    0.74970    1.000
    C42      C        0.59442    0.62313    0.77320    1.000
    C43      C        0.57987    0.59326    0.78770    1.000
    H18      H        0.55750    0.59390    0.79690    1.000
    C44      C        0.59880    0.56237    0.78830    1.000
    C45      C        0.63230    0.56134    0.77450    1.000
    H19      H        0.64500    0.54070    0.77500    1.000
    C46      C        0.57747    0.65810    0.77460    1.000
    C47      C        0.58170    0.53123    0.80290    1.000
    C48      C        0.55690    0.53153    0.82940    1.000
    H20      H        0.54870    0.55260    0.83820    1.000
    C49      C        0.87700    0.59230    0.72294    1.000
    C50      C        0.87920    0.62790    0.72915    1.000
    H21      H        0.85940    0.64030    0.73590    1.000
    C51      C        0.91080    0.64510    0.72525    1.000
    C52      C        0.94030    0.62660    0.71510    1.000
    H22      H        0.96150    0.63810    0.71250    1.000
    C53      C        0.93820    0.59100    0.70890    1.000
    C54      C        0.90650    0.57380    0.71283    1.000
    H23      H        0.90500    0.55000    0.70870    1.000
    C55      C        0.96861    0.57070    0.69820    1.000
    C56      C        0.96857    0.54200    0.67610    1.000
    H24      H        0.94750    0.53240    0.66870    1.000
    Sm3      Sm       0.74307    0.91110    0.24333    1.000
    O19      O        0.65760    0.96154    0.21930    1.000
    O20      O        0.68151    0.91271    0.23780    1.000
    O21      O        0.61743    0.80018    0.23898    1.000
    O22      O        0.56101    0.80010    0.23280    1.000
    O23      O        0.79950    0.93893    0.25120    1.000
    O24      O        0.79975    0.88317    0.24350    1.000
    O25      O        0.91261    0.81793    0.25522    1.000
    O26      O        0.94630    0.83940    0.29620    1.000
    O27      O        0.73237    0.97169    0.23015    1.000
    C57      C        0.65610    0.92929    0.22634    1.000
    C58      C        0.62360    0.90810    0.22010    1.000
    C59      C        0.62360    0.87330    0.23000    1.000
    H25      H        0.64340    0.86350    0.24010    1.000
    C60      C        0.59410    0.85290    0.22470    1.000
    C61      C        0.56460    0.86750    0.20960    1.000
    H26      H        0.54480    0.85390    0.20600    1.000
    C62      C        0.56460    0.90230    0.19970    1.000
    C63      C        0.59410    0.92270    0.20500    1.000
    H27      H        0.59410    0.94600    0.19840    1.000
    C64      C        0.58930    0.81581    0.23271    1.000
    C65      C        0.53140    0.91430    0.18360    1.000
    C66      C        0.53143    0.93800    0.15590    1.000
    H28      H        0.55250    0.94590    0.14680    1.000
    C67      C        0.81526    0.91054    0.25104    1.000
    C68      C        0.85315    0.90879    0.26000    1.000
    C69      C        0.87209    0.87790    0.25940    1.000
    H29      H        0.86240    0.85790    0.24970    1.000
    C70      C        0.90558    0.87687    0.27320    1.000
    C71      C        0.92013    0.90674    0.28770    1.000
    H30      H        0.94250    0.90610    0.29690    1.000
    C72      C        0.90120    0.93763    0.28830    1.000
    C73      C        0.86770    0.93866    0.27450    1.000
    H31      H        0.85500    0.95930    0.27500    1.000
    C74      C        0.92253    0.84190    0.27460    1.000
    C75      C        0.91830    0.96877    0.30290    1.000
    C76      C        0.94310    0.96847    0.32940    1.000
    H32      H        0.95130    0.94740    0.33820    1.000
    C77      C        0.62300    0.90770    0.22294    1.000
    C78      C        0.62080    0.87210    0.22915    1.000
    H33      H        0.64060    0.85970    0.23590    1.000
    C79      C        0.58920    0.85490    0.22525    1.000
    C80      C        0.55970    0.87340    0.21510    1.000
    H34      H        0.53850    0.86190    0.21250    1.000
    C81      C        0.56180    0.90900    0.20890    1.000
    C82      C        0.59350    0.92620    0.21283    1.000
    H35      H        0.59500    0.95000    0.20870    1.000
    C83      C        0.53139    0.92930    0.19820    1.000
    C84      C        0.53143    0.95800    0.17610    1.000
    H36      H        0.55250    0.96760    0.16870    1.000
    Sm4      Sm       0.24307    0.41110    0.74333    1.000
    O28      O        0.15760    0.46154    0.71930    1.000
    O29      O        0.18151    0.41271    0.73780    1.000
    O30      O        0.11743    0.30018    0.73898    1.000
    O31      O        0.06101    0.30010    0.73280    1.000
    O32      O        0.29950    0.43893    0.75120    1.000
    O33      O        0.29975    0.38317    0.74350    1.000
    O34      O        0.41261    0.31793    0.75522    1.000
    O35      O        0.44630    0.33940    0.79620    1.000
    O36      O        0.23237    0.47169    0.73015    1.000
    C85      C        0.15610    0.42929    0.72634    1.000
    C86      C        0.12360    0.40810    0.72010    1.000
    C87      C        0.12360    0.37330    0.73000    1.000
    H37      H        0.14340    0.36350    0.74010    1.000
    C88      C        0.09410    0.35290    0.72470    1.000
    C89      C        0.06460    0.36750    0.70960    1.000
    H38      H        0.04480    0.35390    0.70600    1.000
    C90      C        0.06460    0.40230    0.69970    1.000
    C91      C        0.09410    0.42270    0.70500    1.000
    H39      H        0.09410    0.44600    0.69840    1.000
    C92      C        0.08930    0.31581    0.73271    1.000
    C93      C        0.03140    0.41430    0.68360    1.000
    C94      C        0.03143    0.43800    0.65590    1.000
    H40      H        0.05250    0.44590    0.64680    1.000
    C95      C        0.31526    0.41054    0.75104    1.000
    C96      C        0.35315    0.40879    0.76000    1.000
    C97      C        0.37209    0.37790    0.75940    1.000
    H41      H        0.36240    0.35790    0.74970    1.000
    C98      C        0.40558    0.37687    0.77320    1.000
    C99      C        0.42013    0.40674    0.78770    1.000
    H42      H        0.44250    0.40610    0.79690    1.000
    C100     C        0.40120    0.43763    0.78830    1.000
    C101     C        0.36770    0.43866    0.77450    1.000
    H43      H        0.35500    0.45930    0.77500    1.000
    C102     C        0.42253    0.34190    0.77460    1.000
    C103     C        0.41830    0.46877    0.80290    1.000
    C104     C        0.44310    0.46847    0.82940    1.000
    H44      H        0.45130    0.44740    0.83820    1.000
    C105     C        0.12300    0.40770    0.72294    1.000
    C106     C        0.12080    0.37210    0.72915    1.000
    H45      H        0.14060    0.35970    0.73590    1.000
    C107     C        0.08920    0.35490    0.72525    1.000
    C108     C        0.05970    0.37340    0.71510    1.000
    H46      H        0.03850    0.36190    0.71250    1.000
    C109     C        0.06180    0.40900    0.70890    1.000
    C110     C        0.09350    0.42620    0.71283    1.000
    H47      H        0.09500    0.45000    0.70870    1.000
    C111     C        0.03139    0.42930    0.69820    1.000
    C112     C        0.03143    0.45800    0.67610    1.000
    H48      H        0.05250    0.46760    0.66870    1.000
    Sm5      Sm       0.74307    0.08890    0.75667    1.000
    O37      O        0.65760    0.03846    0.78070    1.000
    O38      O        0.68151    0.08729    0.76220    1.000
    O39      O        0.61743    0.19982    0.76102    1.000
    O40      O        0.56101    0.19990    0.76720    1.000
    O41      O        0.79950    0.06107    0.74880    1.000
    O42      O        0.79975    0.11683    0.75650    1.000
    O43      O        0.91261    0.18207    0.74478    1.000
    O44      O        0.94630    0.16060    0.70380    1.000
    O45      O        0.73237    0.02831    0.76985    1.000
    C113     C        0.65610    0.07071    0.77366    1.000
    C114     C        0.62360    0.09190    0.77990    1.000
    C115     C        0.62360    0.12670    0.77000    1.000
    H49      H        0.64340    0.13650    0.75990    1.000
    C116     C        0.59410    0.14710    0.77530    1.000
    C117     C        0.56460    0.13250    0.79040    1.000
    H50      H        0.54480    0.14610    0.79400    1.000
    C118     C        0.56460    0.09770    0.80030    1.000
    C119     C        0.59410    0.07730    0.79500    1.000
    H51      H        0.59410    0.05400    0.80160    1.000
    C120     C        0.58930    0.18419    0.76729    1.000
    C121     C        0.53140    0.08570    0.81640    1.000
    C122     C        0.53143    0.06200    0.84410    1.000
    H52      H        0.55250    0.05410    0.85320    1.000
    C123     C        0.81526    0.08946    0.74896    1.000
    C124     C        0.85315    0.09121    0.74000    1.000
    C125     C        0.87209    0.12210    0.74060    1.000
    H53      H        0.86240    0.14210    0.75030    1.000
    C126     C        0.90558    0.12313    0.72680    1.000
    C127     C        0.92013    0.09326    0.71230    1.000
    H54      H        0.94250    0.09390    0.70310    1.000
    C128     C        0.90120    0.06237    0.71170    1.000
    C129     C        0.86770    0.06134    0.72550    1.000
    H55      H        0.85500    0.04070    0.72500    1.000
    C130     C        0.92253    0.15810    0.72540    1.000
    C131     C        0.91830    0.03123    0.69710    1.000
    C132     C        0.94310    0.03153    0.67060    1.000
    H56      H        0.95130    0.05260    0.66180    1.000
    C133     C        0.62300    0.09230    0.77706    1.000
    C134     C        0.62080    0.12790    0.77085    1.000
    H57      H        0.64060    0.14030    0.76410    1.000
    C135     C        0.58920    0.14510    0.77475    1.000
    C136     C        0.55970    0.12660    0.78490    1.000
    H58      H        0.53850    0.13810    0.78750    1.000
    C137     C        0.56180    0.09100    0.79110    1.000
    C138     C        0.59350    0.07380    0.78717    1.000
    H59      H        0.59500    0.05000    0.79130    1.000
    C139     C        0.53139    0.07070    0.80180    1.000
    C140     C        0.53143    0.04200    0.82390    1.000
    H60      H        0.55250    0.03240    0.83130    1.000
    Sm6      Sm       0.24307    0.58890    0.25667    1.000
    O46      O        0.15760    0.53846    0.28070    1.000
    O47      O        0.18151    0.58729    0.26220    1.000
    O48      O        0.11743    0.69982    0.26102    1.000
    O49      O        0.06101    0.69990    0.26720    1.000
    O50      O        0.29950    0.56107    0.24880    1.000
    O51      O        0.29975    0.61683    0.25650    1.000
    O52      O        0.41261    0.68207    0.24478    1.000
    O53      O        0.44630    0.66060    0.20380    1.000
    O54      O        0.23237    0.52831    0.26985    1.000
    C141     C        0.15610    0.57071    0.27366    1.000
    C142     C        0.12360    0.59190    0.27990    1.000
    C143     C        0.12360    0.62670    0.27000    1.000
    H61      H        0.14340    0.63650    0.25990    1.000
    C144     C        0.09410    0.64710    0.27530    1.000
    C145     C        0.06460    0.63250    0.29040    1.000
    H62      H        0.04480    0.64610    0.29400    1.000
    C146     C        0.06460    0.59770    0.30030    1.000
    C147     C        0.09410    0.57730    0.29500    1.000
    H63      H        0.09410    0.55400    0.30160    1.000
    C148     C        0.08930    0.68419    0.26729    1.000
    C149     C        0.03140    0.58570    0.31640    1.000
    C150     C        0.03143    0.56200    0.34410    1.000
    H64      H        0.05250    0.55410    0.35320    1.000
    C151     C        0.31526    0.58946    0.24896    1.000
    C152     C        0.35315    0.59121    0.24000    1.000
    C153     C        0.37209    0.62210    0.24060    1.000
    H65      H        0.36240    0.64210    0.25030    1.000
    C154     C        0.40558    0.62313    0.22680    1.000
    C155     C        0.42013    0.59326    0.21230    1.000
    H66      H        0.44250    0.59390    0.20310    1.000
    C156     C        0.40120    0.56237    0.21170    1.000
    C157     C        0.36770    0.56134    0.22550    1.000
    H67      H        0.35500    0.54070    0.22500    1.000
    C158     C        0.42253    0.65810    0.22540    1.000
    C159     C        0.41830    0.53123    0.19710    1.000
    C160     C        0.44310    0.53153    0.17060    1.000
    H68      H        0.45130    0.55260    0.16180    1.000
    C161     C        0.12300    0.59230    0.27706    1.000
    C162     C        0.12080    0.62790    0.27085    1.000
    H69      H        0.14060    0.64030    0.26410    1.000
    C163     C        0.08920    0.64510    0.27475    1.000
    C164     C        0.05970    0.62660    0.28490    1.000
    H70      H        0.03850    0.63810    0.28750    1.000
    C165     C        0.06180    0.59100    0.29110    1.000
    C166     C        0.09350    0.57380    0.28717    1.000
    H71      H        0.09500    0.55000    0.29130    1.000
    C167     C        0.03139    0.57070    0.30180    1.000
    C168     C        0.03143    0.54200    0.32390    1.000
    H72      H        0.05250    0.53240    0.33130    1.000
    Sm7      Sm       0.25693    0.91110    0.75667    1.000
    O55      O        0.34240    0.96154    0.78070    1.000
    O56      O        0.31849    0.91271    0.76220    1.000
    O57      O        0.38257    0.80018    0.76102    1.000
    O58      O        0.43899    0.80010    0.76720    1.000
    O59      O        0.20050    0.93893    0.74880    1.000
    O60      O        0.20025    0.88317    0.75650    1.000
    O61      O        0.08739    0.81793    0.74478    1.000
    O62      O        0.05370    0.83940    0.70380    1.000
    O63      O        0.26763    0.97169    0.76985    1.000
    C169     C        0.34390    0.92929    0.77366    1.000
    C170     C        0.37640    0.90810    0.77990    1.000
    C171     C        0.37640    0.87330    0.77000    1.000
    H73      H        0.35660    0.86350    0.75990    1.000
    C172     C        0.40590    0.85290    0.77530    1.000
    C173     C        0.43540    0.86750    0.79040    1.000
    H74      H        0.45520    0.85390    0.79400    1.000
    C174     C        0.43540    0.90230    0.80030    1.000
    C175     C        0.40590    0.92270    0.79500    1.000
    H75      H        0.40590    0.94600    0.80160    1.000
    C176     C        0.41070    0.81581    0.76729    1.000
    C177     C        0.46860    0.91430    0.81640    1.000
    C178     C        0.46857    0.93800    0.84410    1.000
    H76      H        0.44750    0.94590    0.85320    1.000
    C179     C        0.18474    0.91054    0.74896    1.000
    C180     C        0.14685    0.90879    0.74000    1.000
    C181     C        0.12791    0.87790    0.74060    1.000
    H77      H        0.13760    0.85790    0.75030    1.000
    C182     C        0.09442    0.87687    0.72680    1.000
    C183     C        0.07987    0.90674    0.71230    1.000
    H78      H        0.05750    0.90610    0.70310    1.000
    C184     C        0.09880    0.93763    0.71170    1.000
    C185     C        0.13230    0.93866    0.72550    1.000
    H79      H        0.14500    0.95930    0.72500    1.000
    C186     C        0.07747    0.84190    0.72540    1.000
    C187     C        0.08170    0.96877    0.69710    1.000
    C188     C        0.05690    0.96847    0.67060    1.000
    H80      H        0.04870    0.94740    0.66180    1.000
    C189     C        0.37700    0.90770    0.77706    1.000
    C190     C        0.37920    0.87210    0.77085    1.000
    H81      H        0.35940    0.85970    0.76410    1.000
    C191     C        0.41080    0.85490    0.77475    1.000
    C192     C        0.44030    0.87340    0.78490    1.000
    H82      H        0.46150    0.86190    0.78750    1.000
    C193     C        0.43820    0.90900    0.79110    1.000
    C194     C        0.40650    0.92620    0.78717    1.000
    H83      H        0.40500    0.95000    0.79130    1.000
    C195     C        0.46861    0.92930    0.80180    1.000
    C196     C        0.46857    0.95800    0.82390    1.000
    H84      H        0.44750    0.96760    0.83130    1.000
    Sm8      Sm       0.75693    0.41110    0.25667    1.000
    O64      O        0.84240    0.46154    0.28070    1.000
    O65      O        0.81849    0.41271    0.26220    1.000
    O66      O        0.88257    0.30018    0.26102    1.000
    O67      O        0.93899    0.30010    0.26720    1.000
    O68      O        0.70050    0.43893    0.24880    1.000
    O69      O        0.70025    0.38317    0.25650    1.000
    O70      O        0.58739    0.31793    0.24478    1.000
    O71      O        0.55370    0.33940    0.20380    1.000
    O72      O        0.76763    0.47169    0.26985    1.000
    C197     C        0.84390    0.42929    0.27366    1.000
    C198     C        0.87640    0.40810    0.27990    1.000
    C199     C        0.87640    0.37330    0.27000    1.000
    H85      H        0.85660    0.36350    0.25990    1.000
    C200     C        0.90590    0.35290    0.27530    1.000
    C201     C        0.93540    0.36750    0.29040    1.000
    H86      H        0.95520    0.35390    0.29400    1.000
    C202     C        0.93540    0.40230    0.30030    1.000
    C203     C        0.90590    0.42270    0.29500    1.000
    H87      H        0.90590    0.44600    0.30160    1.000
    C204     C        0.91070    0.31581    0.26729    1.000
    C205     C        0.96860    0.41430    0.31640    1.000
    C206     C        0.96857    0.43800    0.34410    1.000
    H88      H        0.94750    0.44590    0.35320    1.000
    C207     C        0.68474    0.41054    0.24896    1.000
    C208     C        0.64685    0.40879    0.24000    1.000
    C209     C        0.62791    0.37790    0.24060    1.000
    H89      H        0.63760    0.35790    0.25030    1.000
    C210     C        0.59442    0.37687    0.22680    1.000
    C211     C        0.57987    0.40674    0.21230    1.000
    H90      H        0.55750    0.40610    0.20310    1.000
    C212     C        0.59880    0.43763    0.21170    1.000
    C213     C        0.63230    0.43866    0.22550    1.000
    H91      H        0.64500    0.45930    0.22500    1.000
    C214     C        0.57747    0.34190    0.22540    1.000
    C215     C        0.58170    0.46877    0.19710    1.000
    C216     C        0.55690    0.46847    0.17060    1.000
    H92      H        0.54870    0.44740    0.16180    1.000
    C217     C        0.87700    0.40770    0.27706    1.000
    C218     C        0.87920    0.37210    0.27085    1.000
    H93      H        0.85940    0.35970    0.26410    1.000
    C219     C        0.91080    0.35490    0.27475    1.000
    C220     C        0.94030    0.37340    0.28490    1.000
    H94      H        0.96150    0.36190    0.28750    1.000
    C221     C        0.93820    0.40900    0.29110    1.000
    C222     C        0.90650    0.42620    0.28717    1.000
    H95      H        0.90500    0.45000    0.29130    1.000
    C223     C        0.96861    0.42930    0.30180    1.000
    C224     C        0.96857    0.45800    0.32390    1.000
    H96      H        0.94750    0.46760    0.33130    1.000
    Sm9      Sm       0.24333    0.25693    0.08890    1.000
    O73      O        0.21930    0.34240    0.03846    1.000
    O74      O        0.23780    0.31849    0.08729    1.000
    O75      O        0.23898    0.38257    0.19982    1.000
    O76      O        0.23280    0.43899    0.19990    1.000
    O77      O        0.25120    0.20050    0.06107    1.000
    O78      O        0.24350    0.20025    0.11683    1.000
    O79      O        0.25522    0.08739    0.18207    1.000
    O80      O        0.29620    0.05370    0.16060    1.000
    O81      O        0.23015    0.26763    0.02831    1.000
    C225     C        0.22634    0.34390    0.07071    1.000
    C226     C        0.22010    0.37640    0.09190    1.000
    C227     C        0.23000    0.37640    0.12670    1.000
    H97      H        0.24010    0.35660    0.13650    1.000
    C228     C        0.22470    0.40590    0.14710    1.000
    C229     C        0.20960    0.43540    0.13250    1.000
    H98      H        0.20600    0.45520    0.14610    1.000
    C230     C        0.19970    0.43540    0.09770    1.000
    C231     C        0.20500    0.40590    0.07730    1.000
    H99      H        0.19840    0.40590    0.05400    1.000
    C232     C        0.23271    0.41070    0.18419    1.000
    C233     C        0.18360    0.46860    0.08570    1.000
    C234     C        0.15590    0.46857    0.06200    1.000
    H100     H        0.14680    0.44750    0.05410    1.000
    C235     C        0.25104    0.18474    0.08946    1.000
    C236     C        0.26000    0.14685    0.09121    1.000
    C237     C        0.25940    0.12791    0.12210    1.000
    H101     H        0.24970    0.13760    0.14210    1.000
    C238     C        0.27320    0.09442    0.12313    1.000
    C239     C        0.28770    0.07987    0.09326    1.000
    H102     H        0.29690    0.05750    0.09390    1.000
    C240     C        0.28830    0.09880    0.06237    1.000
    C241     C        0.27450    0.13230    0.06134    1.000
    H103     H        0.27500    0.14500    0.04070    1.000
    C242     C        0.27460    0.07747    0.15810    1.000
    C243     C        0.30290    0.08170    0.03123    1.000
    C244     C        0.32940    0.05690    0.03153    1.000
    H104     H        0.33820    0.04870    0.05260    1.000
    C245     C        0.22294    0.37700    0.09230    1.000
    C246     C        0.22915    0.37920    0.12790    1.000
    H105     H        0.23590    0.35940    0.14030    1.000
    C247     C        0.22525    0.41080    0.14510    1.000
    C248     C        0.21510    0.44030    0.12660    1.000
    H106     H        0.21250    0.46150    0.13810    1.000
    C249     C        0.20890    0.43820    0.09100    1.000
    C250     C        0.21283    0.40650    0.07380    1.000
    H107     H        0.20870    0.40500    0.05000    1.000
    C251     C        0.19820    0.46861    0.07070    1.000
    C252     C        0.17610    0.46857    0.04200    1.000
    H108     H        0.16870    0.44750    0.03240    1.000
    Sm10     Sm       0.74333    0.75693    0.58890    1.000
    O82      O        0.71930    0.84240    0.53846    1.000
    O83      O        0.73780    0.81849    0.58729    1.000
    O84      O        0.73898    0.88257    0.69982    1.000
    O85      O        0.73280    0.93899    0.69990    1.000
    O86      O        0.75120    0.70050    0.56107    1.000
    O87      O        0.74350    0.70025    0.61683    1.000
    O88      O        0.75522    0.58739    0.68207    1.000
    O89      O        0.79620    0.55370    0.66060    1.000
    O90      O        0.73015    0.76763    0.52831    1.000
    C253     C        0.72634    0.84390    0.57071    1.000
    C254     C        0.72010    0.87640    0.59190    1.000
    C255     C        0.73000    0.87640    0.62670    1.000
    H109     H        0.74010    0.85660    0.63650    1.000
    C256     C        0.72470    0.90590    0.64710    1.000
    C257     C        0.70960    0.93540    0.63250    1.000
    H110     H        0.70600    0.95520    0.64610    1.000
    C258     C        0.69970    0.93540    0.59770    1.000
    C259     C        0.70500    0.90590    0.57730    1.000
    H111     H        0.69840    0.90590    0.55400    1.000
    C260     C        0.73271    0.91070    0.68419    1.000
    C261     C        0.68360    0.96860    0.58570    1.000
    C262     C        0.65590    0.96857    0.56200    1.000
    H112     H        0.64680    0.94750    0.55410    1.000
    C263     C        0.75104    0.68474    0.58946    1.000
    C264     C        0.76000    0.64685    0.59121    1.000
    C265     C        0.75940    0.62791    0.62210    1.000
    H113     H        0.74970    0.63760    0.64210    1.000
    C266     C        0.77320    0.59442    0.62313    1.000
    C267     C        0.78770    0.57987    0.59326    1.000
    H114     H        0.79690    0.55750    0.59390    1.000
    C268     C        0.78830    0.59880    0.56237    1.000
    C269     C        0.77450    0.63230    0.56134    1.000
    H115     H        0.77500    0.64500    0.54070    1.000
    C270     C        0.77460    0.57747    0.65810    1.000
    C271     C        0.80290    0.58170    0.53123    1.000
    C272     C        0.82940    0.55690    0.53153    1.000
    H116     H        0.83820    0.54870    0.55260    1.000
    C273     C        0.72294    0.87700    0.59230    1.000
    C274     C        0.72915    0.87920    0.62790    1.000
    H117     H        0.73590    0.85940    0.64030    1.000
    C275     C        0.72525    0.91080    0.64510    1.000
    C276     C        0.71510    0.94030    0.62660    1.000
    H118     H        0.71250    0.96150    0.63810    1.000
    C277     C        0.70890    0.93820    0.59100    1.000
    C278     C        0.71283    0.90650    0.57380    1.000
    H119     H        0.70870    0.90500    0.55000    1.000
    C279     C        0.69820    0.96861    0.57070    1.000
    C280     C        0.67610    0.96857    0.54200    1.000
    H120     H        0.66870    0.94750    0.53240    1.000
    Sm11     Sm       0.24333    0.74307    0.91110    1.000
    O91      O        0.21930    0.65760    0.96154    1.000
    O92      O        0.23780    0.68151    0.91271    1.000
    O93      O        0.23898    0.61743    0.80018    1.000
    O94      O        0.23280    0.56101    0.80010    1.000
    O95      O        0.25120    0.79950    0.93893    1.000
    O96      O        0.24350    0.79975    0.88317    1.000
    O97      O        0.25522    0.91261    0.81793    1.000
    O98      O        0.29620    0.94630    0.83940    1.000
    O99      O        0.23015    0.73237    0.97169    1.000
    C281     C        0.22634    0.65610    0.92929    1.000
    C282     C        0.22010    0.62360    0.90810    1.000
    C283     C        0.23000    0.62360    0.87330    1.000
    H121     H        0.24010    0.64340    0.86350    1.000
    C284     C        0.22470    0.59410    0.85290    1.000
    C285     C        0.20960    0.56460    0.86750    1.000
    H122     H        0.20600    0.54480    0.85390    1.000
    C286     C        0.19970    0.56460    0.90230    1.000
    C287     C        0.20500    0.59410    0.92270    1.000
    H123     H        0.19840    0.59410    0.94600    1.000
    C288     C        0.23271    0.58930    0.81581    1.000
    C289     C        0.18360    0.53140    0.91430    1.000
    C290     C        0.15590    0.53143    0.93800    1.000
    H124     H        0.14680    0.55250    0.94590    1.000
    C291     C        0.25104    0.81526    0.91054    1.000
    C292     C        0.26000    0.85315    0.90879    1.000
    C293     C        0.25940    0.87209    0.87790    1.000
    H125     H        0.24970    0.86240    0.85790    1.000
    C294     C        0.27320    0.90558    0.87687    1.000
    C295     C        0.28770    0.92013    0.90674    1.000
    H126     H        0.29690    0.94250    0.90610    1.000
    C296     C        0.28830    0.90120    0.93763    1.000
    C297     C        0.27450    0.86770    0.93866    1.000
    H127     H        0.27500    0.85500    0.95930    1.000
    C298     C        0.27460    0.92253    0.84190    1.000
    C299     C        0.30290    0.91830    0.96877    1.000
    C300     C        0.32940    0.94310    0.96847    1.000
    H128     H        0.33820    0.95130    0.94740    1.000
    C301     C        0.22294    0.62300    0.90770    1.000
    C302     C        0.22915    0.62080    0.87210    1.000
    H129     H        0.23590    0.64060    0.85970    1.000
    C303     C        0.22525    0.58920    0.85490    1.000
    C304     C        0.21510    0.55970    0.87340    1.000
    H130     H        0.21250    0.53850    0.86190    1.000
    C305     C        0.20890    0.56180    0.90900    1.000
    C306     C        0.21283    0.59350    0.92620    1.000
    H131     H        0.20870    0.59500    0.95000    1.000
    C307     C        0.19820    0.53139    0.92930    1.000
    C308     C        0.17610    0.53143    0.95800    1.000
    H132     H        0.16870    0.55250    0.96760    1.000
    Sm12     Sm       0.74333    0.24307    0.41110    1.000
    O100     O        0.71930    0.15760    0.46154    1.000
    O101     O        0.73780    0.18151    0.41271    1.000
    O102     O        0.73898    0.11743    0.30018    1.000
    O103     O        0.73280    0.06101    0.30010    1.000
    O104     O        0.75120    0.29950    0.43893    1.000
    O105     O        0.74350    0.29975    0.38317    1.000
    O106     O        0.75522    0.41261    0.31793    1.000
    O107     O        0.79620    0.44630    0.33940    1.000
    O108     O        0.73015    0.23237    0.47169    1.000
    C309     C        0.72634    0.15610    0.42929    1.000
    C310     C        0.72010    0.12360    0.40810    1.000
    C311     C        0.73000    0.12360    0.37330    1.000
    H133     H        0.74010    0.14340    0.36350    1.000
    C312     C        0.72470    0.09410    0.35290    1.000
    C313     C        0.70960    0.06460    0.36750    1.000
    H134     H        0.70600    0.04480    0.35390    1.000
    C314     C        0.69970    0.06460    0.40230    1.000
    C315     C        0.70500    0.09410    0.42270    1.000
    H135     H        0.69840    0.09410    0.44600    1.000
    C316     C        0.73271    0.08930    0.31581    1.000
    C317     C        0.68360    0.03140    0.41430    1.000
    C318     C        0.65590    0.03143    0.43800    1.000
    H136     H        0.64680    0.05250    0.44590    1.000
    C319     C        0.75104    0.31526    0.41054    1.000
    C320     C        0.76000    0.35315    0.40879    1.000
    C321     C        0.75940    0.37209    0.37790    1.000
    H137     H        0.74970    0.36240    0.35790    1.000
    C322     C        0.77320    0.40558    0.37687    1.000
    C323     C        0.78770    0.42013    0.40674    1.000
    H138     H        0.79690    0.44250    0.40610    1.000
    C324     C        0.78830    0.40120    0.43763    1.000
    C325     C        0.77450    0.36770    0.43866    1.000
    H139     H        0.77500    0.35500    0.45930    1.000
    C326     C        0.77460    0.42253    0.34190    1.000
    C327     C        0.80290    0.41830    0.46877    1.000
    C328     C        0.82940    0.44310    0.46847    1.000
    H140     H        0.83820    0.45130    0.44740    1.000
    C329     C        0.72294    0.12300    0.40770    1.000
    C330     C        0.72915    0.12080    0.37210    1.000
    H141     H        0.73590    0.14060    0.35970    1.000
    C331     C        0.72525    0.08920    0.35490    1.000
    C332     C        0.71510    0.05970    0.37340    1.000
    H142     H        0.71250    0.03850    0.36190    1.000
    C333     C        0.70890    0.06180    0.40900    1.000
    C334     C        0.71283    0.09350    0.42620    1.000
    H143     H        0.70870    0.09500    0.45000    1.000
    C335     C        0.69820    0.03139    0.42930    1.000
    C336     C        0.67610    0.03143    0.45800    1.000
    H144     H        0.66870    0.05250    0.46760    1.000
    Sm13     Sm       0.75667    0.74307    0.08890    1.000
    O109     O        0.78070    0.65760    0.03846    1.000
    O110     O        0.76220    0.68151    0.08729    1.000
    O111     O        0.76102    0.61743    0.19982    1.000
    O112     O        0.76720    0.56101    0.19990    1.000
    O113     O        0.74880    0.79950    0.06107    1.000
    O114     O        0.75650    0.79975    0.11683    1.000
    O115     O        0.74478    0.91261    0.18207    1.000
    O116     O        0.70380    0.94630    0.16060    1.000
    O117     O        0.76985    0.73237    0.02831    1.000
    C337     C        0.77366    0.65610    0.07071    1.000
    C338     C        0.77990    0.62360    0.09190    1.000
    C339     C        0.77000    0.62360    0.12670    1.000
    H145     H        0.75990    0.64340    0.13650    1.000
    C340     C        0.77530    0.59410    0.14710    1.000
    C341     C        0.79040    0.56460    0.13250    1.000
    H146     H        0.79400    0.54480    0.14610    1.000
    C342     C        0.80030    0.56460    0.09770    1.000
    C343     C        0.79500    0.59410    0.07730    1.000
    H147     H        0.80160    0.59410    0.05400    1.000
    C344     C        0.76729    0.58930    0.18419    1.000
    C345     C        0.81640    0.53140    0.08570    1.000
    C346     C        0.84410    0.53143    0.06200    1.000
    H148     H        0.85320    0.55250    0.05410    1.000
    C347     C        0.74896    0.81526    0.08946    1.000
    C348     C        0.74000    0.85315    0.09121    1.000
    C349     C        0.74060    0.87209    0.12210    1.000
    H149     H        0.75030    0.86240    0.14210    1.000
    C350     C        0.72680    0.90558    0.12313    1.000
    C351     C        0.71230    0.92013    0.09326    1.000
    H150     H        0.70310    0.94250    0.09390    1.000
    C352     C        0.71170    0.90120    0.06237    1.000
    C353     C        0.72550    0.86770    0.06134    1.000
    H151     H        0.72500    0.85500    0.04070    1.000
    C354     C        0.72540    0.92253    0.15810    1.000
    C355     C        0.69710    0.91830    0.03123    1.000
    C356     C        0.67060    0.94310    0.03153    1.000
    H152     H        0.66180    0.95130    0.05260    1.000
    C357     C        0.77706    0.62300    0.09230    1.000
    C358     C        0.77085    0.62080    0.12790    1.000
    H153     H        0.76410    0.64060    0.14030    1.000
    C359     C        0.77475    0.58920    0.14510    1.000
    C360     C        0.78490    0.55970    0.12660    1.000
    H154     H        0.78750    0.53850    0.13810    1.000
    C361     C        0.79110    0.56180    0.09100    1.000
    C362     C        0.78717    0.59350    0.07380    1.000
    H155     H        0.79130    0.59500    0.05000    1.000
    C363     C        0.80180    0.53139    0.07070    1.000
    C364     C        0.82390    0.53143    0.04200    1.000
    H156     H        0.83130    0.55250    0.03240    1.000
    Sm14     Sm       0.25667    0.24307    0.58890    1.000
    O118     O        0.28070    0.15760    0.53846    1.000
    O119     O        0.26220    0.18151    0.58729    1.000
    O120     O        0.26102    0.11743    0.69982    1.000
    O121     O        0.26720    0.06101    0.69990    1.000
    O122     O        0.24880    0.29950    0.56107    1.000
    O123     O        0.25650    0.29975    0.61683    1.000
    O124     O        0.24478    0.41261    0.68207    1.000
    O125     O        0.20380    0.44630    0.66060    1.000
    O126     O        0.26985    0.23237    0.52831    1.000
    C365     C        0.27366    0.15610    0.57071    1.000
    C366     C        0.27990    0.12360    0.59190    1.000
    C367     C        0.27000    0.12360    0.62670    1.000
    H157     H        0.25990    0.14340    0.63650    1.000
    C368     C        0.27530    0.09410    0.64710    1.000
    C369     C        0.29040    0.06460    0.63250    1.000
    H158     H        0.29400    0.04480    0.64610    1.000
    C370     C        0.30030    0.06460    0.59770    1.000
    C371     C        0.29500    0.09410    0.57730    1.000
    H159     H        0.30160    0.09410    0.55400    1.000
    C372     C        0.26729    0.08930    0.68419    1.000
    C373     C        0.31640    0.03140    0.58570    1.000
    C374     C        0.34410    0.03143    0.56200    1.000
    H160     H        0.35320    0.05250    0.55410    1.000
    C375     C        0.24896    0.31526    0.58946    1.000
    C376     C        0.24000    0.35315    0.59121    1.000
    C377     C        0.24060    0.37209    0.62210    1.000
    H161     H        0.25030    0.36240    0.64210    1.000
    C378     C        0.22680    0.40558    0.62313    1.000
    C379     C        0.21230    0.42013    0.59326    1.000
    H162     H        0.20310    0.44250    0.59390    1.000
    C380     C        0.21170    0.40120    0.56237    1.000
    C381     C        0.22550    0.36770    0.56134    1.000
    H163     H        0.22500    0.35500    0.54070    1.000
    C382     C        0.22540    0.42253    0.65810    1.000
    C383     C        0.19710    0.41830    0.53123    1.000
    C384     C        0.17060    0.44310    0.53153    1.000
    H164     H        0.16180    0.45130    0.55260    1.000
    C385     C        0.27706    0.12300    0.59230    1.000
    C386     C        0.27085    0.12080    0.62790    1.000
    H165     H        0.26410    0.14060    0.64030    1.000
    C387     C        0.27475    0.08920    0.64510    1.000
    C388     C        0.28490    0.05970    0.62660    1.000
    H166     H        0.28750    0.03850    0.63810    1.000
    C389     C        0.29110    0.06180    0.59100    1.000
    C390     C        0.28717    0.09350    0.57380    1.000
    H167     H        0.29130    0.09500    0.55000    1.000
    C391     C        0.30180    0.03139    0.57070    1.000
    C392     C        0.32390    0.03143    0.54200    1.000
    H168     H        0.33130    0.05250    0.53240    1.000
    Sm15     Sm       0.75667    0.25693    0.91110    1.000
    O127     O        0.78070    0.34240    0.96154    1.000
    O128     O        0.76220    0.31849    0.91271    1.000
    O129     O        0.76102    0.38257    0.80018    1.000
    O130     O        0.76720    0.43899    0.80010    1.000
    O131     O        0.74880    0.20050    0.93893    1.000
    O132     O        0.75650    0.20025    0.88317    1.000
    O133     O        0.74478    0.08739    0.81793    1.000
    O134     O        0.70380    0.05370    0.83940    1.000
    O135     O        0.76985    0.26763    0.97169    1.000
    C393     C        0.77366    0.34390    0.92929    1.000
    C394     C        0.77990    0.37640    0.90810    1.000
    C395     C        0.77000    0.37640    0.87330    1.000
    H169     H        0.75990    0.35660    0.86350    1.000
    C396     C        0.77530    0.40590    0.85290    1.000
    C397     C        0.79040    0.43540    0.86750    1.000
    H170     H        0.79400    0.45520    0.85390    1.000
    C398     C        0.80030    0.43540    0.90230    1.000
    C399     C        0.79500    0.40590    0.92270    1.000
    H171     H        0.80160    0.40590    0.94600    1.000
    C400     C        0.76729    0.41070    0.81581    1.000
    C401     C        0.81640    0.46860    0.91430    1.000
    C402     C        0.84410    0.46857    0.93800    1.000
    H172     H        0.85320    0.44750    0.94590    1.000
    C403     C        0.74896    0.18474    0.91054    1.000
    C404     C        0.74000    0.14685    0.90879    1.000
    C405     C        0.74060    0.12791    0.87790    1.000
    H173     H        0.75030    0.13760    0.85790    1.000
    C406     C        0.72680    0.09442    0.87687    1.000
    C407     C        0.71230    0.07987    0.90674    1.000
    H174     H        0.70310    0.05750    0.90610    1.000
    C408     C        0.71170    0.09880    0.93763    1.000
    C409     C        0.72550    0.13230    0.93866    1.000
    H175     H        0.72500    0.14500    0.95930    1.000
    C410     C        0.72540    0.07747    0.84190    1.000
    C411     C        0.69710    0.08170    0.96877    1.000
    C412     C        0.67060    0.05690    0.96847    1.000
    H176     H        0.66180    0.04870    0.94740    1.000
    C413     C        0.77706    0.37700    0.90770    1.000
    C414     C        0.77085    0.37920    0.87210    1.000
    H177     H        0.76410    0.35940    0.85970    1.000
    C415     C        0.77475    0.41080    0.85490    1.000
    C416     C        0.78490    0.44030    0.87340    1.000
    H178     H        0.78750    0.46150    0.86190    1.000
    C417     C        0.79110    0.43820    0.90900    1.000
    C418     C        0.78717    0.40650    0.92620    1.000
    H179     H        0.79130    0.40500    0.95000    1.000
    C419     C        0.80180    0.46861    0.92930    1.000
    C420     C        0.82390    0.46857    0.95800    1.000
    H180     H        0.83130    0.44750    0.96760    1.000
    Sm16     Sm       0.25667    0.75693    0.41110    1.000
    O136     O        0.28070    0.84240    0.46154    1.000
    O137     O        0.26220    0.81849    0.41271    1.000
    O138     O        0.26102    0.88257    0.30018    1.000
    O139     O        0.26720    0.93899    0.30010    1.000
    O140     O        0.24880    0.70050    0.43893    1.000
    O141     O        0.25650    0.70025    0.38317    1.000
    O142     O        0.24478    0.58739    0.31793    1.000
    O143     O        0.20380    0.55370    0.33940    1.000
    O144     O        0.26985    0.76763    0.47169    1.000
    C421     C        0.27366    0.84390    0.42929    1.000
    C422     C        0.27990    0.87640    0.40810    1.000
    C423     C        0.27000    0.87640    0.37330    1.000
    H181     H        0.25990    0.85660    0.36350    1.000
    C424     C        0.27530    0.90590    0.35290    1.000
    C425     C        0.29040    0.93540    0.36750    1.000
    H182     H        0.29400    0.95520    0.35390    1.000
    C426     C        0.30030    0.93540    0.40230    1.000
    C427     C        0.29500    0.90590    0.42270    1.000
    H183     H        0.30160    0.90590    0.44600    1.000
    C428     C        0.26729    0.91070    0.31581    1.000
    C429     C        0.31640    0.96860    0.41430    1.000
    C430     C        0.34410    0.96857    0.43800    1.000
    H184     H        0.35320    0.94750    0.44590    1.000
    C431     C        0.24896    0.68474    0.41054    1.000
    C432     C        0.24000    0.64685    0.40879    1.000
    C433     C        0.24060    0.62791    0.37790    1.000
    H185     H        0.25030    0.63760    0.35790    1.000
    C434     C        0.22680    0.59442    0.37687    1.000
    C435     C        0.21230    0.57987    0.40674    1.000
    H186     H        0.20310    0.55750    0.40610    1.000
    C436     C        0.21170    0.59880    0.43763    1.000
    C437     C        0.22550    0.63230    0.43866    1.000
    H187     H        0.22500    0.64500    0.45930    1.000
    C438     C        0.22540    0.57747    0.34190    1.000
    C439     C        0.19710    0.58170    0.46877    1.000
    C440     C        0.17060    0.55690    0.46847    1.000
    H188     H        0.16180    0.54870    0.44740    1.000
    C441     C        0.27706    0.87700    0.40770    1.000
    C442     C        0.27085    0.87920    0.37210    1.000
    H189     H        0.26410    0.85940    0.35970    1.000
    C443     C        0.27475    0.91080    0.35490    1.000
    C444     C        0.28490    0.94030    0.37340    1.000
    H190     H        0.28750    0.96150    0.36190    1.000
    C445     C        0.29110    0.93820    0.40900    1.000
    C446     C        0.28717    0.90650    0.42620    1.000
    H191     H        0.29130    0.90500    0.45000    1.000
    C447     C        0.30180    0.96861    0.42930    1.000
    C448     C        0.32390    0.96857    0.45800    1.000
    H192     H        0.33130    0.94750    0.46760    1.000
    Sm17     Sm       0.08890    0.24333    0.25693    1.000
    O145     O        0.03846    0.21930    0.34240    1.000
    O146     O        0.08729    0.23780    0.31849    1.000
    O147     O        0.19982    0.23898    0.38257    1.000
    O148     O        0.19990    0.23280    0.43899    1.000
    O149     O        0.06107    0.25120    0.20050    1.000
    O150     O        0.11683    0.24350    0.20025    1.000
    O151     O        0.18207    0.25522    0.08739    1.000
    O152     O        0.16060    0.29620    0.05370    1.000
    O153     O        0.02831    0.23015    0.26763    1.000
    C449     C        0.07071    0.22634    0.34390    1.000
    C450     C        0.09190    0.22010    0.37640    1.000
    C451     C        0.12670    0.23000    0.37640    1.000
    H193     H        0.13650    0.24010    0.35660    1.000
    C452     C        0.14710    0.22470    0.40590    1.000
    C453     C        0.13250    0.20960    0.43540    1.000
    H194     H        0.14610    0.20600    0.45520    1.000
    C454     C        0.09770    0.19970    0.43540    1.000
    C455     C        0.07730    0.20500    0.40590    1.000
    H195     H        0.05400    0.19840    0.40590    1.000
    C456     C        0.18419    0.23271    0.41070    1.000
    C457     C        0.08570    0.18360    0.46860    1.000
    C458     C        0.06200    0.15590    0.46857    1.000
    H196     H        0.05410    0.14680    0.44750    1.000
    C459     C        0.08946    0.25104    0.18474    1.000
    C460     C        0.09121    0.26000    0.14685    1.000
    C461     C        0.12210    0.25940    0.12791    1.000
    H197     H        0.14210    0.24970    0.13760    1.000
    C462     C        0.12313    0.27320    0.09442    1.000
    C463     C        0.09326    0.28770    0.07987    1.000
    H198     H        0.09390    0.29690    0.05750    1.000
    C464     C        0.06237    0.28830    0.09880    1.000
    C465     C        0.06134    0.27450    0.13230    1.000
    H199     H        0.04070    0.27500    0.14500    1.000
    C466     C        0.15810    0.27460    0.07747    1.000
    C467     C        0.03123    0.30290    0.08170    1.000
    C468     C        0.03153    0.32940    0.05690    1.000
    H200     H        0.05260    0.33820    0.04870    1.000
    C469     C        0.09230    0.22294    0.37700    1.000
    C470     C        0.12790    0.22915    0.37920    1.000
    H201     H        0.14030    0.23590    0.35940    1.000
    C471     C        0.14510    0.22525    0.41080    1.000
    C472     C        0.12660    0.21510    0.44030    1.000
    H202     H        0.13810    0.21250    0.46150    1.000
    C473     C        0.09100    0.20890    0.43820    1.000
    C474     C        0.07380    0.21283    0.40650    1.000
    H203     H        0.05000    0.20870    0.40500    1.000
    C475     C        0.07070    0.19820    0.46861    1.000
    C476     C        0.04200    0.17610    0.46857    1.000
    H204     H        0.03240    0.16870    0.44750    1.000
    Sm18     Sm       0.58890    0.74333    0.75693    1.000
    O154     O        0.53846    0.71930    0.84240    1.000
    O155     O        0.58729    0.73780    0.81849    1.000
    O156     O        0.69982    0.73898    0.88257    1.000
    O157     O        0.69990    0.73280    0.93899    1.000
    O158     O        0.56107    0.75120    0.70050    1.000
    O159     O        0.61683    0.74350    0.70025    1.000
    O160     O        0.68207    0.75522    0.58739    1.000
    O161     O        0.66060    0.79620    0.55370    1.000
    O162     O        0.52831    0.73015    0.76763    1.000
    C477     C        0.57071    0.72634    0.84390    1.000
    C478     C        0.59190    0.72010    0.87640    1.000
    C479     C        0.62670    0.73000    0.87640    1.000
    H205     H        0.63650    0.74010    0.85660    1.000
    C480     C        0.64710    0.72470    0.90590    1.000
    C481     C        0.63250    0.70960    0.93540    1.000
    H206     H        0.64610    0.70600    0.95520    1.000
    C482     C        0.59770    0.69970    0.93540    1.000
    C483     C        0.57730    0.70500    0.90590    1.000
    H207     H        0.55400    0.69840    0.90590    1.000
    C484     C        0.68419    0.73271    0.91070    1.000
    C485     C        0.58570    0.68360    0.96860    1.000
    C486     C        0.56200    0.65590    0.96857    1.000
    H208     H        0.55410    0.64680    0.94750    1.000
    C487     C        0.58946    0.75104    0.68474    1.000
    C488     C        0.59121    0.76000    0.64685    1.000
    C489     C        0.62210    0.75940    0.62791    1.000
    H209     H        0.64210    0.74970    0.63760    1.000
    C490     C        0.62313    0.77320    0.59442    1.000
    C491     C        0.59326    0.78770    0.57987    1.000
    H210     H        0.59390    0.79690    0.55750    1.000
    C492     C        0.56237    0.78830    0.59880    1.000
    C493     C        0.56134    0.77450    0.63230    1.000
    H211     H        0.54070    0.77500    0.64500    1.000
    C494     C        0.65810    0.77460    0.57747    1.000
    C495     C        0.53123    0.80290    0.58170    1.000
    C496     C        0.53153    0.82940    0.55690    1.000
    H212     H        0.55260    0.83820    0.54870    1.000
    C497     C        0.59230    0.72294    0.87700    1.000
    C498     C        0.62790    0.72915    0.87920    1.000
    H213     H        0.64030    0.73590    0.85940    1.000
    C499     C        0.64510    0.72525    0.91080    1.000
    C500     C        0.62660    0.71510    0.94030    1.000
    H214     H        0.63810    0.71250    0.96150    1.000
    C501     C        0.59100    0.70890    0.93820    1.000
    C502     C        0.57380    0.71283    0.90650    1.000
    H215     H        0.55000    0.70870    0.90500    1.000
    C503     C        0.57070    0.69820    0.96861    1.000
    C504     C        0.54200    0.67610    0.96857    1.000
    H216     H        0.53240    0.66870    0.94750    1.000
    Sm19     Sm       0.91110    0.24333    0.74307    1.000
    O163     O        0.96154    0.21930    0.65760    1.000
    O164     O        0.91271    0.23780    0.68151    1.000
    O165     O        0.80018    0.23898    0.61743    1.000
    O166     O        0.80010    0.23280    0.56101    1.000
    O167     O        0.93893    0.25120    0.79950    1.000
    O168     O        0.88317    0.24350    0.79975    1.000
    O169     O        0.81793    0.25522    0.91261    1.000
    O170     O        0.83940    0.29620    0.94630    1.000
    O171     O        0.97169    0.23015    0.73237    1.000
    C505     C        0.92929    0.22634    0.65610    1.000
    C506     C        0.90810    0.22010    0.62360    1.000
    C507     C        0.87330    0.23000    0.62360    1.000
    H217     H        0.86350    0.24010    0.64340    1.000
    C508     C        0.85290    0.22470    0.59410    1.000
    C509     C        0.86750    0.20960    0.56460    1.000
    H218     H        0.85390    0.20600    0.54480    1.000
    C510     C        0.90230    0.19970    0.56460    1.000
    C511     C        0.92270    0.20500    0.59410    1.000
    H219     H        0.94600    0.19840    0.59410    1.000
    C512     C        0.81581    0.23271    0.58930    1.000
    C513     C        0.91430    0.18360    0.53140    1.000
    C514     C        0.93800    0.15590    0.53143    1.000
    H220     H        0.94590    0.14680    0.55250    1.000
    C515     C        0.91054    0.25104    0.81526    1.000
    C516     C        0.90879    0.26000    0.85315    1.000
    C517     C        0.87790    0.25940    0.87209    1.000
    H221     H        0.85790    0.24970    0.86240    1.000
    C518     C        0.87687    0.27320    0.90558    1.000
    C519     C        0.90674    0.28770    0.92013    1.000
    H222     H        0.90610    0.29690    0.94250    1.000
    C520     C        0.93763    0.28830    0.90120    1.000
    C521     C        0.93866    0.27450    0.86770    1.000
    H223     H        0.95930    0.27500    0.85500    1.000
    C522     C        0.84190    0.27460    0.92253    1.000
    C523     C        0.96877    0.30290    0.91830    1.000
    C524     C        0.96847    0.32940    0.94310    1.000
    H224     H        0.94740    0.33820    0.95130    1.000
    C525     C        0.90770    0.22294    0.62300    1.000
    C526     C        0.87210    0.22915    0.62080    1.000
    H225     H        0.85970    0.23590    0.64060    1.000
    C527     C        0.85490    0.22525    0.58920    1.000
    C528     C        0.87340    0.21510    0.55970    1.000
    H226     H        0.86190    0.21250    0.53850    1.000
    C529     C        0.90900    0.20890    0.56180    1.000
    C530     C        0.92620    0.21283    0.59350    1.000
    H227     H        0.95000    0.20870    0.59500    1.000
    C531     C        0.92930    0.19820    0.53139    1.000
    C532     C        0.95800    0.17610    0.53143    1.000
    H228     H        0.96760    0.16870    0.55250    1.000
    Sm20     Sm       0.41110    0.74333    0.24307    1.000
    O172     O        0.46154    0.71930    0.15760    1.000
    O173     O        0.41271    0.73780    0.18151    1.000
    O174     O        0.30018    0.73898    0.11743    1.000
    O175     O        0.30010    0.73280    0.06101    1.000
    O176     O        0.43893    0.75120    0.29950    1.000
    O177     O        0.38317    0.74350    0.29975    1.000
    O178     O        0.31793    0.75522    0.41261    1.000
    O179     O        0.33940    0.79620    0.44630    1.000
    O180     O        0.47169    0.73015    0.23237    1.000
    C533     C        0.42929    0.72634    0.15610    1.000
    C534     C        0.40810    0.72010    0.12360    1.000
    C535     C        0.37330    0.73000    0.12360    1.000
    H229     H        0.36350    0.74010    0.14340    1.000
    C536     C        0.35290    0.72470    0.09410    1.000
    C537     C        0.36750    0.70960    0.06460    1.000
    H230     H        0.35390    0.70600    0.04480    1.000
    C538     C        0.40230    0.69970    0.06460    1.000
    C539     C        0.42270    0.70500    0.09410    1.000
    H231     H        0.44600    0.69840    0.09410    1.000
    C540     C        0.31581    0.73271    0.08930    1.000
    C541     C        0.41430    0.68360    0.03140    1.000
    C542     C        0.43800    0.65590    0.03143    1.000
    H232     H        0.44590    0.64680    0.05250    1.000
    C543     C        0.41054    0.75104    0.31526    1.000
    C544     C        0.40879    0.76000    0.35315    1.000
    C545     C        0.37790    0.75940    0.37209    1.000
    H233     H        0.35790    0.74970    0.36240    1.000
    C546     C        0.37687    0.77320    0.40558    1.000
    C547     C        0.40674    0.78770    0.42013    1.000
    H234     H        0.40610    0.79690    0.44250    1.000
    C548     C        0.43763    0.78830    0.40120    1.000
    C549     C        0.43866    0.77450    0.36770    1.000
    H235     H        0.45930    0.77500    0.35500    1.000
    C550     C        0.34190    0.77460    0.42253    1.000
    C551     C        0.46877    0.80290    0.41830    1.000
    C552     C        0.46847    0.82940    0.44310    1.000
    H236     H        0.44740    0.83820    0.45130    1.000
    C553     C        0.40770    0.72294    0.12300    1.000
    C554     C        0.37210    0.72915    0.12080    1.000
    H237     H        0.35970    0.73590    0.14060    1.000
    C555     C        0.35490    0.72525    0.08920    1.000
    C556     C        0.37340    0.71510    0.05970    1.000
    H238     H        0.36190    0.71250    0.03850    1.000
    C557     C        0.40900    0.70890    0.06180    1.000
    C558     C        0.42620    0.71283    0.09350    1.000
    H239     H        0.45000    0.70870    0.09500    1.000
    C559     C        0.42930    0.69820    0.03139    1.000
    C560     C        0.45800    0.67610    0.03143    1.000
    H240     H        0.46760    0.66870    0.05250    1.000
    Sm21     Sm       0.08890    0.75667    0.74307    1.000
    O181     O        0.03846    0.78070    0.65760    1.000
    O182     O        0.08729    0.76220    0.68151    1.000
    O183     O        0.19982    0.76102    0.61743    1.000
    O184     O        0.19990    0.76720    0.56101    1.000
    O185     O        0.06107    0.74880    0.79950    1.000
    O186     O        0.11683    0.75650    0.79975    1.000
    O187     O        0.18207    0.74478    0.91261    1.000
    O188     O        0.16060    0.70380    0.94630    1.000
    O189     O        0.02831    0.76985    0.73237    1.000
    C561     C        0.07071    0.77366    0.65610    1.000
    C562     C        0.09190    0.77990    0.62360    1.000
    C563     C        0.12670    0.77000    0.62360    1.000
    H241     H        0.13650    0.75990    0.64340    1.000
    C564     C        0.14710    0.77530    0.59410    1.000
    C565     C        0.13250    0.79040    0.56460    1.000
    H242     H        0.14610    0.79400    0.54480    1.000
    C566     C        0.09770    0.80030    0.56460    1.000
    C567     C        0.07730    0.79500    0.59410    1.000
    H243     H        0.05400    0.80160    0.59410    1.000
    C568     C        0.18419    0.76729    0.58930    1.000
    C569     C        0.08570    0.81640    0.53140    1.000
    C570     C        0.06200    0.84410    0.53143    1.000
    H244     H        0.05410    0.85320    0.55250    1.000
    C571     C        0.08946    0.74896    0.81526    1.000
    C572     C        0.09121    0.74000    0.85315    1.000
    C573     C        0.12210    0.74060    0.87209    1.000
    H245     H        0.14210    0.75030    0.86240    1.000
    C574     C        0.12313    0.72680    0.90558    1.000
    C575     C        0.09326    0.71230    0.92013    1.000
    H246     H        0.09390    0.70310    0.94250    1.000
    C576     C        0.06237    0.71170    0.90120    1.000
    C577     C        0.06134    0.72550    0.86770    1.000
    H247     H        0.04070    0.72500    0.85500    1.000
    C578     C        0.15810    0.72540    0.92253    1.000
    C579     C        0.03123    0.69710    0.91830    1.000
    C580     C        0.03153    0.67060    0.94310    1.000
    H248     H        0.05260    0.66180    0.95130    1.000
    C581     C        0.09230    0.77706    0.62300    1.000
    C582     C        0.12790    0.77085    0.62080    1.000
    H249     H        0.14030    0.76410    0.64060    1.000
    C583     C        0.14510    0.77475    0.58920    1.000
    C584     C        0.12660    0.78490    0.55970    1.000
    H250     H        0.13810    0.78750    0.53850    1.000
    C585     C        0.09100    0.79110    0.56180    1.000
    C586     C        0.07380    0.78717    0.59350    1.000
    H251     H        0.05000    0.79130    0.59500    1.000
    C587     C        0.07070    0.80180    0.53139    1.000
    C588     C        0.04200    0.82390    0.53143    1.000
    H252     H        0.03240    0.83130    0.55250    1.000
    Sm22     Sm       0.58890    0.25667    0.24307    1.000
    O190     O        0.53846    0.28070    0.15760    1.000
    O191     O        0.58729    0.26220    0.18151    1.000
    O192     O        0.69982    0.26102    0.11743    1.000
    O193     O        0.69990    0.26720    0.06101    1.000
    O194     O        0.56107    0.24880    0.29950    1.000
    O195     O        0.61683    0.25650    0.29975    1.000
    O196     O        0.68207    0.24478    0.41261    1.000
    O197     O        0.66060    0.20380    0.44630    1.000
    O198     O        0.52831    0.26985    0.23237    1.000
    C589     C        0.57071    0.27366    0.15610    1.000
    C590     C        0.59190    0.27990    0.12360    1.000
    C591     C        0.62670    0.27000    0.12360    1.000
    H253     H        0.63650    0.25990    0.14340    1.000
    C592     C        0.64710    0.27530    0.09410    1.000
    C593     C        0.63250    0.29040    0.06460    1.000
    H254     H        0.64610    0.29400    0.04480    1.000
    C594     C        0.59770    0.30030    0.06460    1.000
    C595     C        0.57730    0.29500    0.09410    1.000
    H255     H        0.55400    0.30160    0.09410    1.000
    C596     C        0.68419    0.26729    0.08930    1.000
    C597     C        0.58570    0.31640    0.03140    1.000
    C598     C        0.56200    0.34410    0.03143    1.000
    H256     H        0.55410    0.35320    0.05250    1.000
    C599     C        0.58946    0.24896    0.31526    1.000
    C600     C        0.59121    0.24000    0.35315    1.000
    C601     C        0.62210    0.24060    0.37209    1.000
    H257     H        0.64210    0.25030    0.36240    1.000
    C602     C        0.62313    0.22680    0.40558    1.000
    C603     C        0.59326    0.21230    0.42013    1.000
    H258     H        0.59390    0.20310    0.44250    1.000
    C604     C        0.56237    0.21170    0.40120    1.000
    C605     C        0.56134    0.22550    0.36770    1.000
    H259     H        0.54070    0.22500    0.35500    1.000
    C606     C        0.65810    0.22540    0.42253    1.000
    C607     C        0.53123    0.19710    0.41830    1.000
    C608     C        0.53153    0.17060    0.44310    1.000
    H260     H        0.55260    0.16180    0.45130    1.000
    C609     C        0.59230    0.27706    0.12300    1.000
    C610     C        0.62790    0.27085    0.12080    1.000
    H261     H        0.64030    0.26410    0.14060    1.000
    C611     C        0.64510    0.27475    0.08920    1.000
    C612     C        0.62660    0.28490    0.05970    1.000
    H262     H        0.63810    0.28750    0.03850    1.000
    C613     C        0.59100    0.29110    0.06180    1.000
    C614     C        0.57380    0.28717    0.09350    1.000
    H263     H        0.55000    0.29130    0.09500    1.000
    C615     C        0.57070    0.30180    0.03139    1.000
    C616     C        0.54200    0.32390    0.03143    1.000
    H264     H        0.53240    0.33130    0.05250    1.000
    Sm23     Sm       0.91110    0.75667    0.25693    1.000
    O199     O        0.96154    0.78070    0.34240    1.000
    O200     O        0.91271    0.76220    0.31849    1.000
    O201     O        0.80018    0.76102    0.38257    1.000
    O202     O        0.80010    0.76720    0.43899    1.000
    O203     O        0.93893    0.74880    0.20050    1.000
    O204     O        0.88317    0.75650    0.20025    1.000
    O205     O        0.81793    0.74478    0.08739    1.000
    O206     O        0.83940    0.70380    0.05370    1.000
    O207     O        0.97169    0.76985    0.26763    1.000
    C617     C        0.92929    0.77366    0.34390    1.000
    C618     C        0.90810    0.77990    0.37640    1.000
    C619     C        0.87330    0.77000    0.37640    1.000
    H265     H        0.86350    0.75990    0.35660    1.000
    C620     C        0.85290    0.77530    0.40590    1.000
    C621     C        0.86750    0.79040    0.43540    1.000
    H266     H        0.85390    0.79400    0.45520    1.000
    C622     C        0.90230    0.80030    0.43540    1.000
    C623     C        0.92270    0.79500    0.40590    1.000
    H267     H        0.94600    0.80160    0.40590    1.000
    C624     C        0.81581    0.76729    0.41070    1.000
    C625     C        0.91430    0.81640    0.46860    1.000
    C626     C        0.93800    0.84410    0.46857    1.000
    H268     H        0.94590    0.85320    0.44750    1.000
    C627     C        0.91054    0.74896    0.18474    1.000
    C628     C        0.90879    0.74000    0.14685    1.000
    C629     C        0.87790    0.74060    0.12791    1.000
    H269     H        0.85790    0.75030    0.13760    1.000
    C630     C        0.87687    0.72680    0.09442    1.000
    C631     C        0.90674    0.71230    0.07987    1.000
    H270     H        0.90610    0.70310    0.05750    1.000
    C632     C        0.93763    0.71170    0.09880    1.000
    C633     C        0.93866    0.72550    0.13230    1.000
    H271     H        0.95930    0.72500    0.14500    1.000
    C634     C        0.84190    0.72540    0.07747    1.000
    C635     C        0.96877    0.69710    0.08170    1.000
    C636     C        0.96847    0.67060    0.05690    1.000
    H272     H        0.94740    0.66180    0.04870    1.000
    C637     C        0.90770    0.77706    0.37700    1.000
    C638     C        0.87210    0.77085    0.37920    1.000
    H273     H        0.85970    0.76410    0.35940    1.000
    C639     C        0.85490    0.77475    0.41080    1.000
    C640     C        0.87340    0.78490    0.44030    1.000
    H274     H        0.86190    0.78750    0.46150    1.000
    C641     C        0.90900    0.79110    0.43820    1.000
    C642     C        0.92620    0.78717    0.40650    1.000
    H275     H        0.95000    0.79130    0.40500    1.000
    C643     C        0.92930    0.80180    0.46861    1.000
    C644     C        0.95800    0.82390    0.46857    1.000
    H276     H        0.96760    0.83130    0.44750    1.000
    Sm24     Sm       0.41110    0.25667    0.75693    1.000
    O208     O        0.46154    0.28070    0.84240    1.000
    O209     O        0.41271    0.26220    0.81849    1.000
    O210     O        0.30018    0.26102    0.88257    1.000
    O211     O        0.30010    0.26720    0.93899    1.000
    O212     O        0.43893    0.24880    0.70050    1.000
    O213     O        0.38317    0.25650    0.70025    1.000
    O214     O        0.31793    0.24478    0.58739    1.000
    O215     O        0.33940    0.20380    0.55370    1.000
    O216     O        0.47169    0.26985    0.76763    1.000
    C645     C        0.42929    0.27366    0.84390    1.000
    C646     C        0.40810    0.27990    0.87640    1.000
    C647     C        0.37330    0.27000    0.87640    1.000
    H277     H        0.36350    0.25990    0.85660    1.000
    C648     C        0.35290    0.27530    0.90590    1.000
    C649     C        0.36750    0.29040    0.93540    1.000
    H278     H        0.35390    0.29400    0.95520    1.000
    C650     C        0.40230    0.30030    0.93540    1.000
    C651     C        0.42270    0.29500    0.90590    1.000
    H279     H        0.44600    0.30160    0.90590    1.000
    C652     C        0.31581    0.26729    0.91070    1.000
    C653     C        0.41430    0.31640    0.96860    1.000
    C654     C        0.43800    0.34410    0.96857    1.000
    H280     H        0.44590    0.35320    0.94750    1.000
    C655     C        0.41054    0.24896    0.68474    1.000
    C656     C        0.40879    0.24000    0.64685    1.000
    C657     C        0.37790    0.24060    0.62791    1.000
    H281     H        0.35790    0.25030    0.63760    1.000
    C658     C        0.37687    0.22680    0.59442    1.000
    C659     C        0.40674    0.21230    0.57987    1.000
    H282     H        0.40610    0.20310    0.55750    1.000
    C660     C        0.43763    0.21170    0.59880    1.000
    C661     C        0.43866    0.22550    0.63230    1.000
    H283     H        0.45930    0.22500    0.64500    1.000
    C662     C        0.34190    0.22540    0.57747    1.000
    C663     C        0.46877    0.19710    0.58170    1.000
    C664     C        0.46847    0.17060    0.55690    1.000
    H284     H        0.44740    0.16180    0.54870    1.000
    C665     C        0.40770    0.27706    0.87700    1.000
    C666     C        0.37210    0.27085    0.87920    1.000
    H285     H        0.35970    0.26410    0.85940    1.000
    C667     C        0.35490    0.27475    0.91080    1.000
    C668     C        0.37340    0.28490    0.94030    1.000
    H286     H        0.36190    0.28750    0.96150    1.000
    C669     C        0.40900    0.29110    0.93820    1.000
    C670     C        0.42620    0.28717    0.90650    1.000
    H287     H        0.45000    0.29130    0.90500    1.000
    C671     C        0.42930    0.30180    0.96861    1.000
    C672     C        0.45800    0.32390    0.96857    1.000
    H288     H        0.46760    0.33130    0.94750    1.000
    Sm25     Sm       0.74307    0.91110    0.75667    1.000
    O217     O        0.65760    0.96154    0.78070    1.000
    O218     O        0.68151    0.91271    0.76220    1.000
    O219     O        0.61743    0.80018    0.76102    1.000
    O220     O        0.56101    0.80010    0.76720    1.000
    O221     O        0.79950    0.93893    0.74880    1.000
    O222     O        0.79975    0.88317    0.75650    1.000
    O223     O        0.91261    0.81793    0.74478    1.000
    O224     O        0.94630    0.83940    0.70380    1.000
    O225     O        0.73237    0.97169    0.76985    1.000
    C673     C        0.65610    0.92929    0.77366    1.000
    C674     C        0.62360    0.90810    0.77990    1.000
    C675     C        0.62360    0.87330    0.77000    1.000
    H289     H        0.64340    0.86350    0.75990    1.000
    C676     C        0.59410    0.85290    0.77530    1.000
    C677     C        0.56460    0.86750    0.79040    1.000
    H290     H        0.54480    0.85390    0.79400    1.000
    C678     C        0.56460    0.90230    0.80030    1.000
    C679     C        0.59410    0.92270    0.79500    1.000
    H291     H        0.59410    0.94600    0.80160    1.000
    C680     C        0.58930    0.81581    0.76729    1.000
    C681     C        0.53140    0.91430    0.81640    1.000
    C682     C        0.53143    0.93800    0.84410    1.000
    H292     H        0.55250    0.94590    0.85320    1.000
    C683     C        0.81526    0.91054    0.74896    1.000
    C684     C        0.85315    0.90879    0.74000    1.000
    C685     C        0.87209    0.87790    0.74060    1.000
    H293     H        0.86240    0.85790    0.75030    1.000
    C686     C        0.90558    0.87687    0.72680    1.000
    C687     C        0.92013    0.90674    0.71230    1.000
    H294     H        0.94250    0.90610    0.70310    1.000
    C688     C        0.90120    0.93763    0.71170    1.000
    C689     C        0.86770    0.93866    0.72550    1.000
    H295     H        0.85500    0.95930    0.72500    1.000
    C690     C        0.92253    0.84190    0.72540    1.000
    C691     C        0.91830    0.96877    0.69710    1.000
    C692     C        0.94310    0.96847    0.67060    1.000
    H296     H        0.95130    0.94740    0.66180    1.000
    C693     C        0.62300    0.90770    0.77706    1.000
    C694     C        0.62080    0.87210    0.77085    1.000
    H297     H        0.64060    0.85970    0.76410    1.000
    C695     C        0.58920    0.85490    0.77475    1.000
    C696     C        0.55970    0.87340    0.78490    1.000
    H298     H        0.53850    0.86190    0.78750    1.000
    C697     C        0.56180    0.90900    0.79110    1.000
    C698     C        0.59350    0.92620    0.78717    1.000
    H299     H        0.59500    0.95000    0.79130    1.000
    C699     C        0.53139    0.92930    0.80180    1.000
    C700     C        0.53143    0.95800    0.82390    1.000
    H300     H        0.55250    0.96760    0.83130    1.000
    Sm26     Sm       0.24307    0.41110    0.25667    1.000
    O226     O        0.15760    0.46154    0.28070    1.000
    O227     O        0.18151    0.41271    0.26220    1.000
    O228     O        0.11743    0.30018    0.26102    1.000
    O229     O        0.06101    0.30010    0.26720    1.000
    O230     O        0.29950    0.43893    0.24880    1.000
    O231     O        0.29975    0.38317    0.25650    1.000
    O232     O        0.41261    0.31793    0.24478    1.000
    O233     O        0.44630    0.33940    0.20380    1.000
    O234     O        0.23237    0.47169    0.26985    1.000
    C701     C        0.15610    0.42929    0.27366    1.000
    C702     C        0.12360    0.40810    0.27990    1.000
    C703     C        0.12360    0.37330    0.27000    1.000
    H301     H        0.14340    0.36350    0.25990    1.000
    C704     C        0.09410    0.35290    0.27530    1.000
    C705     C        0.06460    0.36750    0.29040    1.000
    H302     H        0.04480    0.35390    0.29400    1.000
    C706     C        0.06460    0.40230    0.30030    1.000
    C707     C        0.09410    0.42270    0.29500    1.000
    H303     H        0.09410    0.44600    0.30160    1.000
    C708     C        0.08930    0.31581    0.26729    1.000
    C709     C        0.03140    0.41430    0.31640    1.000
    C710     C        0.03143    0.43800    0.34410    1.000
    H304     H        0.05250    0.44590    0.35320    1.000
    C711     C        0.31526    0.41054    0.24896    1.000
    C712     C        0.35315    0.40879    0.24000    1.000
    C713     C        0.37209    0.37790    0.24060    1.000
    H305     H        0.36240    0.35790    0.25030    1.000
    C714     C        0.40558    0.37687    0.22680    1.000
    C715     C        0.42013    0.40674    0.21230    1.000
    H306     H        0.44250    0.40610    0.20310    1.000
    C716     C        0.40120    0.43763    0.21170    1.000
    C717     C        0.36770    0.43866    0.22550    1.000
    H307     H        0.35500    0.45930    0.22500    1.000
    C718     C        0.42253    0.34190    0.22540    1.000
    C719     C        0.41830    0.46877    0.19710    1.000
    C720     C        0.44310    0.46847    0.17060    1.000
    H308     H        0.45130    0.44740    0.16180    1.000
    C721     C        0.12300    0.40770    0.27706    1.000
    C722     C        0.12080    0.37210    0.27085    1.000
    H309     H        0.14060    0.35970    0.26410    1.000
    C723     C        0.08920    0.35490    0.27475    1.000
    C724     C        0.05970    0.37340    0.28490    1.000
    H310     H        0.03850    0.36190    0.28750    1.000
    C725     C        0.06180    0.40900    0.29110    1.000
    C726     C        0.09350    0.42620    0.28717    1.000
    H311     H        0.09500    0.45000    0.29130    1.000
    C727     C        0.03139    0.42930    0.30180    1.000
    C728     C        0.03143    0.45800    0.32390    1.000
    H312     H        0.05250    0.46760    0.33130    1.000
    Sm27     Sm       0.25693    0.08890    0.75667    1.000
    O235     O        0.34240    0.03846    0.78070    1.000
    O236     O        0.31849    0.08729    0.76220    1.000
    O237     O        0.38257    0.19982    0.76102    1.000
    O238     O        0.43899    0.19990    0.76720    1.000
    O239     O        0.20050    0.06107    0.74880    1.000
    O240     O        0.20025    0.11683    0.75650    1.000
    O241     O        0.08739    0.18207    0.74478    1.000
    O242     O        0.05370    0.16060    0.70380    1.000
    O243     O        0.26763    0.02831    0.76985    1.000
    C729     C        0.34390    0.07071    0.77366    1.000
    C730     C        0.37640    0.09190    0.77990    1.000
    C731     C        0.37640    0.12670    0.77000    1.000
    H313     H        0.35660    0.13650    0.75990    1.000
    C732     C        0.40590    0.14710    0.77530    1.000
    C733     C        0.43540    0.13250    0.79040    1.000
    H314     H        0.45520    0.14610    0.79400    1.000
    C734     C        0.43540    0.09770    0.80030    1.000
    C735     C        0.40590    0.07730    0.79500    1.000
    H315     H        0.40590    0.05400    0.80160    1.000
    C736     C        0.41070    0.18419    0.76729    1.000
    C737     C        0.46860    0.08570    0.81640    1.000
    C738     C        0.46857    0.06200    0.84410    1.000
    H316     H        0.44750    0.05410    0.85320    1.000
    C739     C        0.18474    0.08946    0.74896    1.000
    C740     C        0.14685    0.09121    0.74000    1.000
    C741     C        0.12791    0.12210    0.74060    1.000
    H317     H        0.13760    0.14210    0.75030    1.000
    C742     C        0.09442    0.12313    0.72680    1.000
    C743     C        0.07987    0.09326    0.71230    1.000
    H318     H        0.05750    0.09390    0.70310    1.000
    C744     C        0.09880    0.06237    0.71170    1.000
    C745     C        0.13230    0.06134    0.72550    1.000
    H319     H        0.14500    0.04070    0.72500    1.000
    C746     C        0.07747    0.15810    0.72540    1.000
    C747     C        0.08170    0.03123    0.69710    1.000
    C748     C        0.05690    0.03153    0.67060    1.000
    H320     H        0.04870    0.05260    0.66180    1.000
    C749     C        0.37700    0.09230    0.77706    1.000
    C750     C        0.37920    0.12790    0.77085    1.000
    H321     H        0.35940    0.14030    0.76410    1.000
    C751     C        0.41080    0.14510    0.77475    1.000
    C752     C        0.44030    0.12660    0.78490    1.000
    H322     H        0.46150    0.13810    0.78750    1.000
    C753     C        0.43820    0.09100    0.79110    1.000
    C754     C        0.40650    0.07380    0.78717    1.000
    H323     H        0.40500    0.05000    0.79130    1.000
    C755     C        0.46861    0.07070    0.80180    1.000
    C756     C        0.46857    0.04200    0.82390    1.000
    H324     H        0.44750    0.03240    0.83130    1.000
    Sm28     Sm       0.75693    0.58890    0.25667    1.000
    O244     O        0.84240    0.53846    0.28070    1.000
    O245     O        0.81849    0.58729    0.26220    1.000
    O246     O        0.88257    0.69982    0.26102    1.000
    O247     O        0.93899    0.69990    0.26720    1.000
    O248     O        0.70050    0.56107    0.24880    1.000
    O249     O        0.70025    0.61683    0.25650    1.000
    O250     O        0.58739    0.68207    0.24478    1.000
    O251     O        0.55370    0.66060    0.20380    1.000
    O252     O        0.76763    0.52831    0.26985    1.000
    C757     C        0.84390    0.57071    0.27366    1.000
    C758     C        0.87640    0.59190    0.27990    1.000
    C759     C        0.87640    0.62670    0.27000    1.000
    H325     H        0.85660    0.63650    0.25990    1.000
    C760     C        0.90590    0.64710    0.27530    1.000
    C761     C        0.93540    0.63250    0.29040    1.000
    H326     H        0.95520    0.64610    0.29400    1.000
    C762     C        0.93540    0.59770    0.30030    1.000
    C763     C        0.90590    0.57730    0.29500    1.000
    H327     H        0.90590    0.55400    0.30160    1.000
    C764     C        0.91070    0.68419    0.26729    1.000
    C765     C        0.96860    0.58570    0.31640    1.000
    C766     C        0.96857    0.56200    0.34410    1.000
    H328     H        0.94750    0.55410    0.35320    1.000
    C767     C        0.68474    0.58946    0.24896    1.000
    C768     C        0.64685    0.59121    0.24000    1.000
    C769     C        0.62791    0.62210    0.24060    1.000
    H329     H        0.63760    0.64210    0.25030    1.000
    C770     C        0.59442    0.62313    0.22680    1.000
    C771     C        0.57987    0.59326    0.21230    1.000
    H330     H        0.55750    0.59390    0.20310    1.000
    C772     C        0.59880    0.56237    0.21170    1.000
    C773     C        0.63230    0.56134    0.22550    1.000
    H331     H        0.64500    0.54070    0.22500    1.000
    C774     C        0.57747    0.65810    0.22540    1.000
    C775     C        0.58170    0.53123    0.19710    1.000
    C776     C        0.55690    0.53153    0.17060    1.000
    H332     H        0.54870    0.55260    0.16180    1.000
    C777     C        0.87700    0.59230    0.27706    1.000
    C778     C        0.87920    0.62790    0.27085    1.000
    H333     H        0.85940    0.64030    0.26410    1.000
    C779     C        0.91080    0.64510    0.27475    1.000
    C780     C        0.94030    0.62660    0.28490    1.000
    H334     H        0.96150    0.63810    0.28750    1.000
    C781     C        0.93820    0.59100    0.29110    1.000
    C782     C        0.90650    0.57380    0.28717    1.000
    H335     H        0.90500    0.55000    0.29130    1.000
    C783     C        0.96861    0.57070    0.30180    1.000
    C784     C        0.96857    0.54200    0.32390    1.000
    H336     H        0.94750    0.53240    0.33130    1.000
    Sm29     Sm       0.25693    0.91110    0.24333    1.000
    O253     O        0.34240    0.96154    0.21930    1.000
    O254     O        0.31849    0.91271    0.23780    1.000
    O255     O        0.38257    0.80018    0.23898    1.000
    O256     O        0.43899    0.80010    0.23280    1.000
    O257     O        0.20050    0.93893    0.25120    1.000
    O258     O        0.20025    0.88317    0.24350    1.000
    O259     O        0.08739    0.81793    0.25522    1.000
    O260     O        0.05370    0.83940    0.29620    1.000
    O261     O        0.26763    0.97169    0.23015    1.000
    C785     C        0.34390    0.92929    0.22634    1.000
    C786     C        0.37640    0.90810    0.22010    1.000
    C787     C        0.37640    0.87330    0.23000    1.000
    H337     H        0.35660    0.86350    0.24010    1.000
    C788     C        0.40590    0.85290    0.22470    1.000
    C789     C        0.43540    0.86750    0.20960    1.000
    H338     H        0.45520    0.85390    0.20600    1.000
    C790     C        0.43540    0.90230    0.19970    1.000
    C791     C        0.40590    0.92270    0.20500    1.000
    H339     H        0.40590    0.94600    0.19840    1.000
    C792     C        0.41070    0.81581    0.23271    1.000
    C793     C        0.46860    0.91430    0.18360    1.000
    C794     C        0.46857    0.93800    0.15590    1.000
    H340     H        0.44750    0.94590    0.14680    1.000
    C795     C        0.18474    0.91054    0.25104    1.000
    C796     C        0.14685    0.90879    0.26000    1.000
    C797     C        0.12791    0.87790    0.25940    1.000
    H341     H        0.13760    0.85790    0.24970    1.000
    C798     C        0.09442    0.87687    0.27320    1.000
    C799     C        0.07987    0.90674    0.28770    1.000
    H342     H        0.05750    0.90610    0.29690    1.000
    C800     C        0.09880    0.93763    0.28830    1.000
    C801     C        0.13230    0.93866    0.27450    1.000
    H343     H        0.14500    0.95930    0.27500    1.000
    C802     C        0.07747    0.84190    0.27460    1.000
    C803     C        0.08170    0.96877    0.30290    1.000
    C804     C        0.05690    0.96847    0.32940    1.000
    H344     H        0.04870    0.94740    0.33820    1.000
    C805     C        0.37700    0.90770    0.22294    1.000
    C806     C        0.37920    0.87210    0.22915    1.000
    H345     H        0.35940    0.85970    0.23590    1.000
    C807     C        0.41080    0.85490    0.22525    1.000
    C808     C        0.44030    0.87340    0.21510    1.000
    H346     H        0.46150    0.86190    0.21250    1.000
    C809     C        0.43820    0.90900    0.20890    1.000
    C810     C        0.40650    0.92620    0.21283    1.000
    H347     H        0.40500    0.95000    0.20870    1.000
    C811     C        0.46861    0.92930    0.19820    1.000
    C812     C        0.46857    0.95800    0.17610    1.000
    H348     H        0.44750    0.96760    0.16870    1.000
    Sm30     Sm       0.75693    0.41110    0.74333    1.000
    O262     O        0.84240    0.46154    0.71930    1.000
    O263     O        0.81849    0.41271    0.73780    1.000
    O264     O        0.88257    0.30018    0.73898    1.000
    O265     O        0.93899    0.30010    0.73280    1.000
    O266     O        0.70050    0.43893    0.75120    1.000
    O267     O        0.70025    0.38317    0.74350    1.000
    O268     O        0.58739    0.31793    0.75522    1.000
    O269     O        0.55370    0.33940    0.79620    1.000
    O270     O        0.76763    0.47169    0.73015    1.000
    C813     C        0.84390    0.42929    0.72634    1.000
    C814     C        0.87640    0.40810    0.72010    1.000
    C815     C        0.87640    0.37330    0.73000    1.000
    H349     H        0.85660    0.36350    0.74010    1.000
    C816     C        0.90590    0.35290    0.72470    1.000
    C817     C        0.93540    0.36750    0.70960    1.000
    H350     H        0.95520    0.35390    0.70600    1.000
    C818     C        0.93540    0.40230    0.69970    1.000
    C819     C        0.90590    0.42270    0.70500    1.000
    H351     H        0.90590    0.44600    0.69840    1.000
    C820     C        0.91070    0.31581    0.73271    1.000
    C821     C        0.96860    0.41430    0.68360    1.000
    C822     C        0.96857    0.43800    0.65590    1.000
    H352     H        0.94750    0.44590    0.64680    1.000
    C823     C        0.68474    0.41054    0.75104    1.000
    C824     C        0.64685    0.40879    0.76000    1.000
    C825     C        0.62791    0.37790    0.75940    1.000
    H353     H        0.63760    0.35790    0.74970    1.000
    C826     C        0.59442    0.37687    0.77320    1.000
    C827     C        0.57987    0.40674    0.78770    1.000
    H354     H        0.55750    0.40610    0.79690    1.000
    C828     C        0.59880    0.43763    0.78830    1.000
    C829     C        0.63230    0.43866    0.77450    1.000
    H355     H        0.64500    0.45930    0.77500    1.000
    C830     C        0.57747    0.34190    0.77460    1.000
    C831     C        0.58170    0.46877    0.80290    1.000
    C832     C        0.55690    0.46847    0.82940    1.000
    H356     H        0.54870    0.44740    0.83820    1.000
    C833     C        0.87700    0.40770    0.72294    1.000
    C834     C        0.87920    0.37210    0.72915    1.000
    H357     H        0.85940    0.35970    0.73590    1.000
    C835     C        0.91080    0.35490    0.72525    1.000
    C836     C        0.94030    0.37340    0.71510    1.000
    H358     H        0.96150    0.36190    0.71250    1.000
    C837     C        0.93820    0.40900    0.70890    1.000
    C838     C        0.90650    0.42620    0.71283    1.000
    H359     H        0.90500    0.45000    0.70870    1.000
    C839     C        0.96861    0.42930    0.69820    1.000
    C840     C        0.96857    0.45800    0.67610    1.000
    H360     H        0.94750    0.46760    0.66870    1.000
    Sm31     Sm       0.74307    0.08890    0.24333    1.000
    O271     O        0.65760    0.03846    0.21930    1.000
    O272     O        0.68151    0.08729    0.23780    1.000
    O273     O        0.61743    0.19982    0.23898    1.000
    O274     O        0.56101    0.19990    0.23280    1.000
    O275     O        0.79950    0.06107    0.25120    1.000
    O276     O        0.79975    0.11683    0.24350    1.000
    O277     O        0.91261    0.18207    0.25522    1.000
    O278     O        0.94630    0.16060    0.29620    1.000
    O279     O        0.73237    0.02831    0.23015    1.000
    C841     C        0.65610    0.07071    0.22634    1.000
    C842     C        0.62360    0.09190    0.22010    1.000
    C843     C        0.62360    0.12670    0.23000    1.000
    H361     H        0.64340    0.13650    0.24010    1.000
    C844     C        0.59410    0.14710    0.22470    1.000
    C845     C        0.56460    0.13250    0.20960    1.000
    H362     H        0.54480    0.14610    0.20600    1.000
    C846     C        0.56460    0.09770    0.19970    1.000
    C847     C        0.59410    0.07730    0.20500    1.000
    H363     H        0.59410    0.05400    0.19840    1.000
    C848     C        0.58930    0.18419    0.23271    1.000
    C849     C        0.53140    0.08570    0.18360    1.000
    C850     C        0.53143    0.06200    0.15590    1.000
    H364     H        0.55250    0.05410    0.14680    1.000
    C851     C        0.81526    0.08946    0.25104    1.000
    C852     C        0.85315    0.09121    0.26000    1.000
    C853     C        0.87209    0.12210    0.25940    1.000
    H365     H        0.86240    0.14210    0.24970    1.000
    C854     C        0.90558    0.12313    0.27320    1.000
    C855     C        0.92013    0.09326    0.28770    1.000
    H366     H        0.94250    0.09390    0.29690    1.000
    C856     C        0.90120    0.06237    0.28830    1.000
    C857     C        0.86770    0.06134    0.27450    1.000
    H367     H        0.85500    0.04070    0.27500    1.000
    C858     C        0.92253    0.15810    0.27460    1.000
    C859     C        0.91830    0.03123    0.30290    1.000
    C860     C        0.94310    0.03153    0.32940    1.000
    H368     H        0.95130    0.05260    0.33820    1.000
    C861     C        0.62300    0.09230    0.22294    1.000
    C862     C        0.62080    0.12790    0.22915    1.000
    H369     H        0.64060    0.14030    0.23590    1.000
    C863     C        0.58920    0.14510    0.22525    1.000
    C864     C        0.55970    0.12660    0.21510    1.000
    H370     H        0.53850    0.13810    0.21250    1.000
    C865     C        0.56180    0.09100    0.20890    1.000
    C866     C        0.59350    0.07380    0.21283    1.000
    H371     H        0.59500    0.05000    0.20870    1.000
    C867     C        0.53139    0.07070    0.19820    1.000
    C868     C        0.53143    0.04200    0.17610    1.000
    H372     H        0.55250    0.03240    0.16870    1.000
    Sm32     Sm       0.24307    0.58890    0.74333    1.000
    O280     O        0.15760    0.53846    0.71930    1.000
    O281     O        0.18151    0.58729    0.73780    1.000
    O282     O        0.11743    0.69982    0.73898    1.000
    O283     O        0.06101    0.69990    0.73280    1.000
    O284     O        0.29950    0.56107    0.75120    1.000
    O285     O        0.29975    0.61683    0.74350    1.000
    O286     O        0.41261    0.68207    0.75522    1.000
    O287     O        0.44630    0.66060    0.79620    1.000
    O288     O        0.23237    0.52831    0.73015    1.000
    C869     C        0.15610    0.57071    0.72634    1.000
    C870     C        0.12360    0.59190    0.72010    1.000
    C871     C        0.12360    0.62670    0.73000    1.000
    H373     H        0.14340    0.63650    0.74010    1.000
    C872     C        0.09410    0.64710    0.72470    1.000
    C873     C        0.06460    0.63250    0.70960    1.000
    H374     H        0.04480    0.64610    0.70600    1.000
    C874     C        0.06460    0.59770    0.69970    1.000
    C875     C        0.09410    0.57730    0.70500    1.000
    H375     H        0.09410    0.55400    0.69840    1.000
    C876     C        0.08930    0.68419    0.73271    1.000
    C877     C        0.03140    0.58570    0.68360    1.000
    C878     C        0.03143    0.56200    0.65590    1.000
    H376     H        0.05250    0.55410    0.64680    1.000
    C879     C        0.31526    0.58946    0.75104    1.000
    C880     C        0.35315    0.59121    0.76000    1.000
    C881     C        0.37209    0.62210    0.75940    1.000
    H377     H        0.36240    0.64210    0.74970    1.000
    C882     C        0.40558    0.62313    0.77320    1.000
    C883     C        0.42013    0.59326    0.78770    1.000
    H378     H        0.44250    0.59390    0.79690    1.000
    C884     C        0.40120    0.56237    0.78830    1.000
    C885     C        0.36770    0.56134    0.77450    1.000
    H379     H        0.35500    0.54070    0.77500    1.000
    C886     C        0.42253    0.65810    0.77460    1.000
    C887     C        0.41830    0.53123    0.80290    1.000
    C888     C        0.44310    0.53153    0.82940    1.000
    H380     H        0.45130    0.55260    0.83820    1.000
    C889     C        0.12300    0.59230    0.72294    1.000
    C890     C        0.12080    0.62790    0.72915    1.000
    H381     H        0.14060    0.64030    0.73590    1.000
    C891     C        0.08920    0.64510    0.72525    1.000
    C892     C        0.05970    0.62660    0.71510    1.000
    H382     H        0.03850    0.63810    0.71250    1.000
    C893     C        0.06180    0.59100    0.70890    1.000
    C894     C        0.09350    0.57380    0.71283    1.000
    H383     H        0.09500    0.55000    0.70870    1.000
    C895     C        0.03139    0.57070    0.69820    1.000
    C896     C        0.03143    0.54200    0.67610    1.000
    H384     H        0.05250    0.53240    0.66870    1.000
    Sm33     Sm       0.75667    0.74307    0.91110    1.000
    O289     O        0.78070    0.65760    0.96154    1.000
    O290     O        0.76220    0.68151    0.91271    1.000
    O291     O        0.76102    0.61743    0.80018    1.000
    O292     O        0.76720    0.56101    0.80010    1.000
    O293     O        0.74880    0.79950    0.93893    1.000
    O294     O        0.75650    0.79975    0.88317    1.000
    O295     O        0.74478    0.91261    0.81793    1.000
    O296     O        0.70380    0.94630    0.83940    1.000
    O297     O        0.76985    0.73237    0.97169    1.000
    C897     C        0.77366    0.65610    0.92929    1.000
    C898     C        0.77990    0.62360    0.90810    1.000
    C899     C        0.77000    0.62360    0.87330    1.000
    H385     H        0.75990    0.64340    0.86350    1.000
    C900     C        0.77530    0.59410    0.85290    1.000
    C901     C        0.79040    0.56460    0.86750    1.000
    H386     H        0.79400    0.54480    0.85390    1.000
    C902     C        0.80030    0.56460    0.90230    1.000
    C903     C        0.79500    0.59410    0.92270    1.000
    H387     H        0.80160    0.59410    0.94600    1.000
    C904     C        0.76729    0.58930    0.81581    1.000
    C905     C        0.81640    0.53140    0.91430    1.000
    C906     C        0.84410    0.53143    0.93800    1.000
    H388     H        0.85320    0.55250    0.94590    1.000
    C907     C        0.74896    0.81526    0.91054    1.000
    C908     C        0.74000    0.85315    0.90879    1.000
    C909     C        0.74060    0.87209    0.87790    1.000
    H389     H        0.75030    0.86240    0.85790    1.000
    C910     C        0.72680    0.90558    0.87687    1.000
    C911     C        0.71230    0.92013    0.90674    1.000
    H390     H        0.70310    0.94250    0.90610    1.000
    C912     C        0.71170    0.90120    0.93763    1.000
    C913     C        0.72550    0.86770    0.93866    1.000
    H391     H        0.72500    0.85500    0.95930    1.000
    C914     C        0.72540    0.92253    0.84190    1.000
    C915     C        0.69710    0.91830    0.96877    1.000
    C916     C        0.67060    0.94310    0.96847    1.000
    H392     H        0.66180    0.95130    0.94740    1.000
    C917     C        0.77706    0.62300    0.90770    1.000
    C918     C        0.77085    0.62080    0.87210    1.000
    H393     H        0.76410    0.64060    0.85970    1.000
    C919     C        0.77475    0.58920    0.85490    1.000
    C920     C        0.78490    0.55970    0.87340    1.000
    H394     H        0.78750    0.53850    0.86190    1.000
    C921     C        0.79110    0.56180    0.90900    1.000
    C922     C        0.78717    0.59350    0.92620    1.000
    H395     H        0.79130    0.59500    0.95000    1.000
    C923     C        0.80180    0.53139    0.92930    1.000
    C924     C        0.82390    0.53143    0.95800    1.000
    H396     H        0.83130    0.55250    0.96760    1.000
    Sm34     Sm       0.25667    0.24307    0.41110    1.000
    O298     O        0.28070    0.15760    0.46154    1.000
    O299     O        0.26220    0.18151    0.41271    1.000
    O300     O        0.26102    0.11743    0.30018    1.000
    O301     O        0.26720    0.06101    0.30010    1.000
    O302     O        0.24880    0.29950    0.43893    1.000
    O303     O        0.25650    0.29975    0.38317    1.000
    O304     O        0.24478    0.41261    0.31793    1.000
    O305     O        0.20380    0.44630    0.33940    1.000
    O306     O        0.26985    0.23237    0.47169    1.000
    C925     C        0.27366    0.15610    0.42929    1.000
    C926     C        0.27990    0.12360    0.40810    1.000
    C927     C        0.27000    0.12360    0.37330    1.000
    H397     H        0.25990    0.14340    0.36350    1.000
    C928     C        0.27530    0.09410    0.35290    1.000
    C929     C        0.29040    0.06460    0.36750    1.000
    H398     H        0.29400    0.04480    0.35390    1.000
    C930     C        0.30030    0.06460    0.40230    1.000
    C931     C        0.29500    0.09410    0.42270    1.000
    H399     H        0.30160    0.09410    0.44600    1.000
    C932     C        0.26729    0.08930    0.31581    1.000
    C933     C        0.31640    0.03140    0.41430    1.000
    C934     C        0.34410    0.03143    0.43800    1.000
    H400     H        0.35320    0.05250    0.44590    1.000
    C935     C        0.24896    0.31526    0.41054    1.000
    C936     C        0.24000    0.35315    0.40879    1.000
    C937     C        0.24060    0.37209    0.37790    1.000
    H401     H        0.25030    0.36240    0.35790    1.000
    C938     C        0.22680    0.40558    0.37687    1.000
    C939     C        0.21230    0.42013    0.40674    1.000
    H402     H        0.20310    0.44250    0.40610    1.000
    C940     C        0.21170    0.40120    0.43763    1.000
    C941     C        0.22550    0.36770    0.43866    1.000
    H403     H        0.22500    0.35500    0.45930    1.000
    C942     C        0.22540    0.42253    0.34190    1.000
    C943     C        0.19710    0.41830    0.46877    1.000
    C944     C        0.17060    0.44310    0.46847    1.000
    H404     H        0.16180    0.45130    0.44740    1.000
    C945     C        0.27706    0.12300    0.40770    1.000
    C946     C        0.27085    0.12080    0.37210    1.000
    H405     H        0.26410    0.14060    0.35970    1.000
    C947     C        0.27475    0.08920    0.35490    1.000
    C948     C        0.28490    0.05970    0.37340    1.000
    H406     H        0.28750    0.03850    0.36190    1.000
    C949     C        0.29110    0.06180    0.40900    1.000
    C950     C        0.28717    0.09350    0.42620    1.000
    H407     H        0.29130    0.09500    0.45000    1.000
    C951     C        0.30180    0.03139    0.42930    1.000
    C952     C        0.32390    0.03143    0.45800    1.000
    H408     H        0.33130    0.05250    0.46760    1.000
    Sm35     Sm       0.75667    0.25693    0.08890    1.000
    O307     O        0.78070    0.34240    0.03846    1.000
    O308     O        0.76220    0.31849    0.08729    1.000
    O309     O        0.76102    0.38257    0.19982    1.000
    O310     O        0.76720    0.43899    0.19990    1.000
    O311     O        0.74880    0.20050    0.06107    1.000
    O312     O        0.75650    0.20025    0.11683    1.000
    O313     O        0.74478    0.08739    0.18207    1.000
    O314     O        0.70380    0.05370    0.16060    1.000
    O315     O        0.76985    0.26763    0.02831    1.000
    C953     C        0.77366    0.34390    0.07071    1.000
    C954     C        0.77990    0.37640    0.09190    1.000
    C955     C        0.77000    0.37640    0.12670    1.000
    H409     H        0.75990    0.35660    0.13650    1.000
    C956     C        0.77530    0.40590    0.14710    1.000
    C957     C        0.79040    0.43540    0.13250    1.000
    H410     H        0.79400    0.45520    0.14610    1.000
    C958     C        0.80030    0.43540    0.09770    1.000
    C959     C        0.79500    0.40590    0.07730    1.000
    H411     H        0.80160    0.40590    0.05400    1.000
    C960     C        0.76729    0.41070    0.18419    1.000
    C961     C        0.81640    0.46860    0.08570    1.000
    C962     C        0.84410    0.46857    0.06200    1.000
    H412     H        0.85320    0.44750    0.05410    1.000
    C963     C        0.74896    0.18474    0.08946    1.000
    C964     C        0.74000    0.14685    0.09121    1.000
    C965     C        0.74060    0.12791    0.12210    1.000
    H413     H        0.75030    0.13760    0.14210    1.000
    C966     C        0.72680    0.09442    0.12313    1.000
    C967     C        0.71230    0.07987    0.09326    1.000
    H414     H        0.70310    0.05750    0.09390    1.000
    C968     C        0.71170    0.09880    0.06237    1.000
    C969     C        0.72550    0.13230    0.06134    1.000
    H415     H        0.72500    0.14500    0.04070    1.000
    C970     C        0.72540    0.07747    0.15810    1.000
    C971     C        0.69710    0.08170    0.03123    1.000
    C972     C        0.67060    0.05690    0.03153    1.000
    H416     H        0.66180    0.04870    0.05260    1.000
    C973     C        0.77706    0.37700    0.09230    1.000
    C974     C        0.77085    0.37920    0.12790    1.000
    H417     H        0.76410    0.35940    0.14030    1.000
    C975     C        0.77475    0.41080    0.14510    1.000
    C976     C        0.78490    0.44030    0.12660    1.000
    H418     H        0.78750    0.46150    0.13810    1.000
    C977     C        0.79110    0.43820    0.09100    1.000
    C978     C        0.78717    0.40650    0.07380    1.000
    H419     H        0.79130    0.40500    0.05000    1.000
    C979     C        0.80180    0.46861    0.07070    1.000
    C980     C        0.82390    0.46857    0.04200    1.000
    H420     H        0.83130    0.44750    0.03240    1.000
    Sm36     Sm       0.25667    0.75693    0.58890    1.000
    O316     O        0.28070    0.84240    0.53846    1.000
    O317     O        0.26220    0.81849    0.58729    1.000
    O318     O        0.26102    0.88257    0.69982    1.000
    O319     O        0.26720    0.93899    0.69990    1.000
    O320     O        0.24880    0.70050    0.56107    1.000
    O321     O        0.25650    0.70025    0.61683    1.000
    O322     O        0.24478    0.58739    0.68207    1.000
    O323     O        0.20380    0.55370    0.66060    1.000
    O324     O        0.26985    0.76763    0.52831    1.000
    C981     C        0.27366    0.84390    0.57071    1.000
    C982     C        0.27990    0.87640    0.59190    1.000
    C983     C        0.27000    0.87640    0.62670    1.000
    H421     H        0.25990    0.85660    0.63650    1.000
    C984     C        0.27530    0.90590    0.64710    1.000
    C985     C        0.29040    0.93540    0.63250    1.000
    H422     H        0.29400    0.95520    0.64610    1.000
    C986     C        0.30030    0.93540    0.59770    1.000
    C987     C        0.29500    0.90590    0.57730    1.000
    H423     H        0.30160    0.90590    0.55400    1.000
    C988     C        0.26729    0.91070    0.68419    1.000
    C989     C        0.31640    0.96860    0.58570    1.000
    C990     C        0.34410    0.96857    0.56200    1.000
    H424     H        0.35320    0.94750    0.55410    1.000
    C991     C        0.24896    0.68474    0.58946    1.000
    C992     C        0.24000    0.64685    0.59121    1.000
    C993     C        0.24060    0.62791    0.62210    1.000
    H425     H        0.25030    0.63760    0.64210    1.000
    C994     C        0.22680    0.59442    0.62313    1.000
    C995     C        0.21230    0.57987    0.59326    1.000
    H426     H        0.20310    0.55750    0.59390    1.000
    C996     C        0.21170    0.59880    0.56237    1.000
    C997     C        0.22550    0.63230    0.56134    1.000
    H427     H        0.22500    0.64500    0.54070    1.000
    C998     C        0.22540    0.57747    0.65810    1.000
    C999     C        0.19710    0.58170    0.53123    1.000
    C1000    C        0.17060    0.55690    0.53153    1.000
    H428     H        0.16180    0.54870    0.55260    1.000
    C1001    C        0.27706    0.87700    0.59230    1.000
    C1002    C        0.27085    0.87920    0.62790    1.000
    H429     H        0.26410    0.85940    0.64030    1.000
    C1003    C        0.27475    0.91080    0.64510    1.000
    C1004    C        0.28490    0.94030    0.62660    1.000
    H430     H        0.28750    0.96150    0.63810    1.000
    C1005    C        0.29110    0.93820    0.59100    1.000
    C1006    C        0.28717    0.90650    0.57380    1.000
    H431     H        0.29130    0.90500    0.55000    1.000
    C1007    C        0.30180    0.96861    0.57070    1.000
    C1008    C        0.32390    0.96857    0.54200    1.000
    H432     H        0.33130    0.94750    0.53240    1.000
    Sm37     Sm       0.24333    0.25693    0.91110    1.000
    O325     O        0.21930    0.34240    0.96154    1.000
    O326     O        0.23780    0.31849    0.91271    1.000
    O327     O        0.23898    0.38257    0.80018    1.000
    O328     O        0.23280    0.43899    0.80010    1.000
    O329     O        0.25120    0.20050    0.93893    1.000
    O330     O        0.24350    0.20025    0.88317    1.000
    O331     O        0.25522    0.08739    0.81793    1.000
    O332     O        0.29620    0.05370    0.83940    1.000
    O333     O        0.23015    0.26763    0.97169    1.000
    C1009    C        0.22634    0.34390    0.92929    1.000
    C1010    C        0.22010    0.37640    0.90810    1.000
    C1011    C        0.23000    0.37640    0.87330    1.000
    H433     H        0.24010    0.35660    0.86350    1.000
    C1012    C        0.22470    0.40590    0.85290    1.000
    C1013    C        0.20960    0.43540    0.86750    1.000
    H434     H        0.20600    0.45520    0.85390    1.000
    C1014    C        0.19970    0.43540    0.90230    1.000
    C1015    C        0.20500    0.40590    0.92270    1.000
    H435     H        0.19840    0.40590    0.94600    1.000
    C1016    C        0.23271    0.41070    0.81581    1.000
    C1017    C        0.18360    0.46860    0.91430    1.000
    C1018    C        0.15590    0.46857    0.93800    1.000
    H436     H        0.14680    0.44750    0.94590    1.000
    C1019    C        0.25104    0.18474    0.91054    1.000
    C1020    C        0.26000    0.14685    0.90879    1.000
    C1021    C        0.25940    0.12791    0.87790    1.000
    H437     H        0.24970    0.13760    0.85790    1.000
    C1022    C        0.27320    0.09442    0.87687    1.000
    C1023    C        0.28770    0.07987    0.90674    1.000
    H438     H        0.29690    0.05750    0.90610    1.000
    C1024    C        0.28830    0.09880    0.93763    1.000
    C1025    C        0.27450    0.13230    0.93866    1.000
    H439     H        0.27500    0.14500    0.95930    1.000
    C1026    C        0.27460    0.07747    0.84190    1.000
    C1027    C        0.30290    0.08170    0.96877    1.000
    C1028    C        0.32940    0.05690    0.96847    1.000
    H440     H        0.33820    0.04870    0.94740    1.000
    C1029    C        0.22294    0.37700    0.90770    1.000
    C1030    C        0.22915    0.37920    0.87210    1.000
    H441     H        0.23590    0.35940    0.85970    1.000
    C1031    C        0.22525    0.41080    0.85490    1.000
    C1032    C        0.21510    0.44030    0.87340    1.000
    H442     H        0.21250    0.46150    0.86190    1.000
    C1033    C        0.20890    0.43820    0.90900    1.000
    C1034    C        0.21283    0.40650    0.92620    1.000
    H443     H        0.20870    0.40500    0.95000    1.000
    C1035    C        0.19820    0.46861    0.92930    1.000
    C1036    C        0.17610    0.46857    0.95800    1.000
    H444     H        0.16870    0.44750    0.96760    1.000
    Sm38     Sm       0.74333    0.75693    0.41110    1.000
    O334     O        0.71930    0.84240    0.46154    1.000
    O335     O        0.73780    0.81849    0.41271    1.000
    O336     O        0.73898    0.88257    0.30018    1.000
    O337     O        0.73280    0.93899    0.30010    1.000
    O338     O        0.75120    0.70050    0.43893    1.000
    O339     O        0.74350    0.70025    0.38317    1.000
    O340     O        0.75522    0.58739    0.31793    1.000
    O341     O        0.79620    0.55370    0.33940    1.000
    O342     O        0.73015    0.76763    0.47169    1.000
    C1037    C        0.72634    0.84390    0.42929    1.000
    C1038    C        0.72010    0.87640    0.40810    1.000
    C1039    C        0.73000    0.87640    0.37330    1.000
    H445     H        0.74010    0.85660    0.36350    1.000
    C1040    C        0.72470    0.90590    0.35290    1.000
    C1041    C        0.70960    0.93540    0.36750    1.000
    H446     H        0.70600    0.95520    0.35390    1.000
    C1042    C        0.69970    0.93540    0.40230    1.000
    C1043    C        0.70500    0.90590    0.42270    1.000
    H447     H        0.69840    0.90590    0.44600    1.000
    C1044    C        0.73271    0.91070    0.31581    1.000
    C1045    C        0.68360    0.96860    0.41430    1.000
    C1046    C        0.65590    0.96857    0.43800    1.000
    H448     H        0.64680    0.94750    0.44590    1.000
    C1047    C        0.75104    0.68474    0.41054    1.000
    C1048    C        0.76000    0.64685    0.40879    1.000
    C1049    C        0.75940    0.62791    0.37790    1.000
    H449     H        0.74970    0.63760    0.35790    1.000
    C1050    C        0.77320    0.59442    0.37687    1.000
    C1051    C        0.78770    0.57987    0.40674    1.000
    H450     H        0.79690    0.55750    0.40610    1.000
    C1052    C        0.78830    0.59880    0.43763    1.000
    C1053    C        0.77450    0.63230    0.43866    1.000
    H451     H        0.77500    0.64500    0.45930    1.000
    C1054    C        0.77460    0.57747    0.34190    1.000
    C1055    C        0.80290    0.58170    0.46877    1.000
    C1056    C        0.82940    0.55690    0.46847    1.000
    H452     H        0.83820    0.54870    0.44740    1.000
    C1057    C        0.72294    0.87700    0.40770    1.000
    C1058    C        0.72915    0.87920    0.37210    1.000
    H453     H        0.73590    0.85940    0.35970    1.000
    C1059    C        0.72525    0.91080    0.35490    1.000
    C1060    C        0.71510    0.94030    0.37340    1.000
    H454     H        0.71250    0.96150    0.36190    1.000
    C1061    C        0.70890    0.93820    0.40900    1.000
    C1062    C        0.71283    0.90650    0.42620    1.000
    H455     H        0.70870    0.90500    0.45000    1.000
    C1063    C        0.69820    0.96861    0.42930    1.000
    C1064    C        0.67610    0.96857    0.45800    1.000
    H456     H        0.66870    0.94750    0.46760    1.000
    Sm39     Sm       0.24333    0.74307    0.08890    1.000
    O343     O        0.21930    0.65760    0.03846    1.000
    O344     O        0.23780    0.68151    0.08729    1.000
    O345     O        0.23898    0.61743    0.19982    1.000
    O346     O        0.23280    0.56101    0.19990    1.000
    O347     O        0.25120    0.79950    0.06107    1.000
    O348     O        0.24350    0.79975    0.11683    1.000
    O349     O        0.25522    0.91261    0.18207    1.000
    O350     O        0.29620    0.94630    0.16060    1.000
    O351     O        0.23015    0.73237    0.02831    1.000
    C1065    C        0.22634    0.65610    0.07071    1.000
    C1066    C        0.22010    0.62360    0.09190    1.000
    C1067    C        0.23000    0.62360    0.12670    1.000
    H457     H        0.24010    0.64340    0.13650    1.000
    C1068    C        0.22470    0.59410    0.14710    1.000
    C1069    C        0.20960    0.56460    0.13250    1.000
    H458     H        0.20600    0.54480    0.14610    1.000
    C1070    C        0.19970    0.56460    0.09770    1.000
    C1071    C        0.20500    0.59410    0.07730    1.000
    H459     H        0.19840    0.59410    0.05400    1.000
    C1072    C        0.23271    0.58930    0.18419    1.000
    C1073    C        0.18360    0.53140    0.08570    1.000
    C1074    C        0.15590    0.53143    0.06200    1.000
    H460     H        0.14680    0.55250    0.05410    1.000
    C1075    C        0.25104    0.81526    0.08946    1.000
    C1076    C        0.26000    0.85315    0.09121    1.000
    C1077    C        0.25940    0.87209    0.12210    1.000
    H461     H        0.24970    0.86240    0.14210    1.000
    C1078    C        0.27320    0.90558    0.12313    1.000
    C1079    C        0.28770    0.92013    0.09326    1.000
    H462     H        0.29690    0.94250    0.09390    1.000
    C1080    C        0.28830    0.90120    0.06237    1.000
    C1081    C        0.27450    0.86770    0.06134    1.000
    H463     H        0.27500    0.85500    0.04070    1.000
    C1082    C        0.27460    0.92253    0.15810    1.000
    C1083    C        0.30290    0.91830    0.03123    1.000
    C1084    C        0.32940    0.94310    0.03153    1.000
    H464     H        0.33820    0.95130    0.05260    1.000
    C1085    C        0.22294    0.62300    0.09230    1.000
    C1086    C        0.22915    0.62080    0.12790    1.000
    H465     H        0.23590    0.64060    0.14030    1.000
    C1087    C        0.22525    0.58920    0.14510    1.000
    C1088    C        0.21510    0.55970    0.12660    1.000
    H466     H        0.21250    0.53850    0.13810    1.000
    C1089    C        0.20890    0.56180    0.09100    1.000
    C1090    C        0.21283    0.59350    0.07380    1.000
    H467     H        0.20870    0.59500    0.05000    1.000
    C1091    C        0.19820    0.53139    0.07070    1.000
    C1092    C        0.17610    0.53143    0.04200    1.000
    H468     H        0.16870    0.55250    0.03240    1.000
    Sm40     Sm       0.74333    0.24307    0.58890    1.000
    O352     O        0.71930    0.15760    0.53846    1.000
    O353     O        0.73780    0.18151    0.58729    1.000
    O354     O        0.73898    0.11743    0.69982    1.000
    O355     O        0.73280    0.06101    0.69990    1.000
    O356     O        0.75120    0.29950    0.56107    1.000
    O357     O        0.74350    0.29975    0.61683    1.000
    O358     O        0.75522    0.41261    0.68207    1.000
    O359     O        0.79620    0.44630    0.66060    1.000
    O360     O        0.73015    0.23237    0.52831    1.000
    C1093    C        0.72634    0.15610    0.57071    1.000
    C1094    C        0.72010    0.12360    0.59190    1.000
    C1095    C        0.73000    0.12360    0.62670    1.000
    H469     H        0.74010    0.14340    0.63650    1.000
    C1096    C        0.72470    0.09410    0.64710    1.000
    C1097    C        0.70960    0.06460    0.63250    1.000
    H470     H        0.70600    0.04480    0.64610    1.000
    C1098    C        0.69970    0.06460    0.59770    1.000
    C1099    C        0.70500    0.09410    0.57730    1.000
    H471     H        0.69840    0.09410    0.55400    1.000
    C1100    C        0.73271    0.08930    0.68419    1.000
    C1101    C        0.68360    0.03140    0.58570    1.000
    C1102    C        0.65590    0.03143    0.56200    1.000
    H472     H        0.64680    0.05250    0.55410    1.000
    C1103    C        0.75104    0.31526    0.58946    1.000
    C1104    C        0.76000    0.35315    0.59121    1.000
    C1105    C        0.75940    0.37209    0.62210    1.000
    H473     H        0.74970    0.36240    0.64210    1.000
    C1106    C        0.77320    0.40558    0.62313    1.000
    C1107    C        0.78770    0.42013    0.59326    1.000
    H474     H        0.79690    0.44250    0.59390    1.000
    C1108    C        0.78830    0.40120    0.56237    1.000
    C1109    C        0.77450    0.36770    0.56134    1.000
    H475     H        0.77500    0.35500    0.54070    1.000
    C1110    C        0.77460    0.42253    0.65810    1.000
    C1111    C        0.80290    0.41830    0.53123    1.000
    C1112    C        0.82940    0.44310    0.53153    1.000
    H476     H        0.83820    0.45130    0.55260    1.000
    C1113    C        0.72294    0.12300    0.59230    1.000
    C1114    C        0.72915    0.12080    0.62790    1.000
    H477     H        0.73590    0.14060    0.64030    1.000
    C1115    C        0.72525    0.08920    0.64510    1.000
    C1116    C        0.71510    0.05970    0.62660    1.000
    H478     H        0.71250    0.03850    0.63810    1.000
    C1117    C        0.70890    0.06180    0.59100    1.000
    C1118    C        0.71283    0.09350    0.57380    1.000
    H479     H        0.70870    0.09500    0.55000    1.000
    C1119    C        0.69820    0.03139    0.57070    1.000
    C1120    C        0.67610    0.03143    0.54200    1.000
    H480     H        0.66870    0.05250    0.53240    1.000
    Sm41     Sm       0.91110    0.75667    0.74307    1.000
    O361     O        0.96154    0.78070    0.65760    1.000
    O362     O        0.91271    0.76220    0.68151    1.000
    O363     O        0.80018    0.76102    0.61743    1.000
    O364     O        0.80010    0.76720    0.56101    1.000
    O365     O        0.93893    0.74880    0.79950    1.000
    O366     O        0.88317    0.75650    0.79975    1.000
    O367     O        0.81793    0.74478    0.91261    1.000
    O368     O        0.83940    0.70380    0.94630    1.000
    O369     O        0.97169    0.76985    0.73237    1.000
    C1121    C        0.92929    0.77366    0.65610    1.000
    C1122    C        0.90810    0.77990    0.62360    1.000
    C1123    C        0.87330    0.77000    0.62360    1.000
    H481     H        0.86350    0.75990    0.64340    1.000
    C1124    C        0.85290    0.77530    0.59410    1.000
    C1125    C        0.86750    0.79040    0.56460    1.000
    H482     H        0.85390    0.79400    0.54480    1.000
    C1126    C        0.90230    0.80030    0.56460    1.000
    C1127    C        0.92270    0.79500    0.59410    1.000
    H483     H        0.94600    0.80160    0.59410    1.000
    C1128    C        0.81581    0.76729    0.58930    1.000
    C1129    C        0.91430    0.81640    0.53140    1.000
    C1130    C        0.93800    0.84410    0.53143    1.000
    H484     H        0.94590    0.85320    0.55250    1.000
    C1131    C        0.91054    0.74896    0.81526    1.000
    C1132    C        0.90879    0.74000    0.85315    1.000
    C1133    C        0.87790    0.74060    0.87209    1.000
    H485     H        0.85790    0.75030    0.86240    1.000
    C1134    C        0.87687    0.72680    0.90558    1.000
    C1135    C        0.90674    0.71230    0.92013    1.000
    H486     H        0.90610    0.70310    0.94250    1.000
    C1136    C        0.93763    0.71170    0.90120    1.000
    C1137    C        0.93866    0.72550    0.86770    1.000
    H487     H        0.95930    0.72500    0.85500    1.000
    C1138    C        0.84190    0.72540    0.92253    1.000
    C1139    C        0.96877    0.69710    0.91830    1.000
    C1140    C        0.96847    0.67060    0.94310    1.000
    H488     H        0.94740    0.66180    0.95130    1.000
    C1141    C        0.90770    0.77706    0.62300    1.000
    C1142    C        0.87210    0.77085    0.62080    1.000
    H489     H        0.85970    0.76410    0.64060    1.000
    C1143    C        0.85490    0.77475    0.58920    1.000
    C1144    C        0.87340    0.78490    0.55970    1.000
    H490     H        0.86190    0.78750    0.53850    1.000
    C1145    C        0.90900    0.79110    0.56180    1.000
    C1146    C        0.92620    0.78717    0.59350    1.000
    H491     H        0.95000    0.79130    0.59500    1.000
    C1147    C        0.92930    0.80180    0.53139    1.000
    C1148    C        0.95800    0.82390    0.53143    1.000
    H492     H        0.96760    0.83130    0.55250    1.000
    Sm42     Sm       0.41110    0.25667    0.24307    1.000
    O370     O        0.46154    0.28070    0.15760    1.000
    O371     O        0.41271    0.26220    0.18151    1.000
    O372     O        0.30018    0.26102    0.11743    1.000
    O373     O        0.30010    0.26720    0.06101    1.000
    O374     O        0.43893    0.24880    0.29950    1.000
    O375     O        0.38317    0.25650    0.29975    1.000
    O376     O        0.31793    0.24478    0.41261    1.000
    O377     O        0.33940    0.20380    0.44630    1.000
    O378     O        0.47169    0.26985    0.23237    1.000
    C1149    C        0.42929    0.27366    0.15610    1.000
    C1150    C        0.40810    0.27990    0.12360    1.000
    C1151    C        0.37330    0.27000    0.12360    1.000
    H493     H        0.36350    0.25990    0.14340    1.000
    C1152    C        0.35290    0.27530    0.09410    1.000
    C1153    C        0.36750    0.29040    0.06460    1.000
    H494     H        0.35390    0.29400    0.04480    1.000
    C1154    C        0.40230    0.30030    0.06460    1.000
    C1155    C        0.42270    0.29500    0.09410    1.000
    H495     H        0.44600    0.30160    0.09410    1.000
    C1156    C        0.31581    0.26729    0.08930    1.000
    C1157    C        0.41430    0.31640    0.03140    1.000
    C1158    C        0.43800    0.34410    0.03143    1.000
    H496     H        0.44590    0.35320    0.05250    1.000
    C1159    C        0.41054    0.24896    0.31526    1.000
    C1160    C        0.40879    0.24000    0.35315    1.000
    C1161    C        0.37790    0.24060    0.37209    1.000
    H497     H        0.35790    0.25030    0.36240    1.000
    C1162    C        0.37687    0.22680    0.40558    1.000
    C1163    C        0.40674    0.21230    0.42013    1.000
    H498     H        0.40610    0.20310    0.44250    1.000
    C1164    C        0.43763    0.21170    0.40120    1.000
    C1165    C        0.43866    0.22550    0.36770    1.000
    H499     H        0.45930    0.22500    0.35500    1.000
    C1166    C        0.34190    0.22540    0.42253    1.000
    C1167    C        0.46877    0.19710    0.41830    1.000
    C1168    C        0.46847    0.17060    0.44310    1.000
    H500     H        0.44740    0.16180    0.45130    1.000
    C1169    C        0.40770    0.27706    0.12300    1.000
    C1170    C        0.37210    0.27085    0.12080    1.000
    H501     H        0.35970    0.26410    0.14060    1.000
    C1171    C        0.35490    0.27475    0.08920    1.000
    C1172    C        0.37340    0.28490    0.05970    1.000
    H502     H        0.36190    0.28750    0.03850    1.000
    C1173    C        0.40900    0.29110    0.06180    1.000
    C1174    C        0.42620    0.28717    0.09350    1.000
    H503     H        0.45000    0.29130    0.09500    1.000
    C1175    C        0.42930    0.30180    0.03139    1.000
    C1176    C        0.45800    0.32390    0.03143    1.000
    H504     H        0.46760    0.33130    0.05250    1.000
    Sm43     Sm       0.08890    0.75667    0.25693    1.000
    O379     O        0.03846    0.78070    0.34240    1.000
    O380     O        0.08729    0.76220    0.31849    1.000
    O381     O        0.19982    0.76102    0.38257    1.000
    O382     O        0.19990    0.76720    0.43899    1.000
    O383     O        0.06107    0.74880    0.20050    1.000
    O384     O        0.11683    0.75650    0.20025    1.000
    O385     O        0.18207    0.74478    0.08739    1.000
    O386     O        0.16060    0.70380    0.05370    1.000
    O387     O        0.02831    0.76985    0.26763    1.000
    C1177    C        0.07071    0.77366    0.34390    1.000
    C1178    C        0.09190    0.77990    0.37640    1.000
    C1179    C        0.12670    0.77000    0.37640    1.000
    H505     H        0.13650    0.75990    0.35660    1.000
    C1180    C        0.14710    0.77530    0.40590    1.000
    C1181    C        0.13250    0.79040    0.43540    1.000
    H506     H        0.14610    0.79400    0.45520    1.000
    C1182    C        0.09770    0.80030    0.43540    1.000
    C1183    C        0.07730    0.79500    0.40590    1.000
    H507     H        0.05400    0.80160    0.40590    1.000
    C1184    C        0.18419    0.76729    0.41070    1.000
    C1185    C        0.08570    0.81640    0.46860    1.000
    C1186    C        0.06200    0.84410    0.46857    1.000
    H508     H        0.05410    0.85320    0.44750    1.000
    C1187    C        0.08946    0.74896    0.18474    1.000
    C1188    C        0.09121    0.74000    0.14685    1.000
    C1189    C        0.12210    0.74060    0.12791    1.000
    H509     H        0.14210    0.75030    0.13760    1.000
    C1190    C        0.12313    0.72680    0.09442    1.000
    C1191    C        0.09326    0.71230    0.07987    1.000
    H510     H        0.09390    0.70310    0.05750    1.000
    C1192    C        0.06237    0.71170    0.09880    1.000
    C1193    C        0.06134    0.72550    0.13230    1.000
    H511     H        0.04070    0.72500    0.14500    1.000
    C1194    C        0.15810    0.72540    0.07747    1.000
    C1195    C        0.03123    0.69710    0.08170    1.000
    C1196    C        0.03153    0.67060    0.05690    1.000
    H512     H        0.05260    0.66180    0.04870    1.000
    C1197    C        0.09230    0.77706    0.37700    1.000
    C1198    C        0.12790    0.77085    0.37920    1.000
    H513     H        0.14030    0.76410    0.35940    1.000
    C1199    C        0.14510    0.77475    0.41080    1.000
    C1200    C        0.12660    0.78490    0.44030    1.000
    H514     H        0.13810    0.78750    0.46150    1.000
    C1201    C        0.09100    0.79110    0.43820    1.000
    C1202    C        0.07380    0.78717    0.40650    1.000
    H515     H        0.05000    0.79130    0.40500    1.000
    C1203    C        0.07070    0.80180    0.46861    1.000
    C1204    C        0.04200    0.82390    0.46857    1.000
    H516     H        0.03240    0.83130    0.44750    1.000
    Sm44     Sm       0.58890    0.25667    0.75693    1.000
    O388     O        0.53846    0.28070    0.84240    1.000
    O389     O        0.58729    0.26220    0.81849    1.000
    O390     O        0.69982    0.26102    0.88257    1.000
    O391     O        0.69990    0.26720    0.93899    1.000
    O392     O        0.56107    0.24880    0.70050    1.000
    O393     O        0.61683    0.25650    0.70025    1.000
    O394     O        0.68207    0.24478    0.58739    1.000
    O395     O        0.66060    0.20380    0.55370    1.000
    O396     O        0.52831    0.26985    0.76763    1.000
    C1205    C        0.57071    0.27366    0.84390    1.000
    C1206    C        0.59190    0.27990    0.87640    1.000
    C1207    C        0.62670    0.27000    0.87640    1.000
    H517     H        0.63650    0.25990    0.85660    1.000
    C1208    C        0.64710    0.27530    0.90590    1.000
    C1209    C        0.63250    0.29040    0.93540    1.000
    H518     H        0.64610    0.29400    0.95520    1.000
    C1210    C        0.59770    0.30030    0.93540    1.000
    C1211    C        0.57730    0.29500    0.90590    1.000
    H519     H        0.55400    0.30160    0.90590    1.000
    C1212    C        0.68419    0.26729    0.91070    1.000
    C1213    C        0.58570    0.31640    0.96860    1.000
    C1214    C        0.56200    0.34410    0.96857    1.000
    H520     H        0.55410    0.35320    0.94750    1.000
    C1215    C        0.58946    0.24896    0.68474    1.000
    C1216    C        0.59121    0.24000    0.64685    1.000
    C1217    C        0.62210    0.24060    0.62791    1.000
    H521     H        0.64210    0.25030    0.63760    1.000
    C1218    C        0.62313    0.22680    0.59442    1.000
    C1219    C        0.59326    0.21230    0.57987    1.000
    H522     H        0.59390    0.20310    0.55750    1.000
    C1220    C        0.56237    0.21170    0.59880    1.000
    C1221    C        0.56134    0.22550    0.63230    1.000
    H523     H        0.54070    0.22500    0.64500    1.000
    C1222    C        0.65810    0.22540    0.57747    1.000
    C1223    C        0.53123    0.19710    0.58170    1.000
    C1224    C        0.53153    0.17060    0.55690    1.000
    H524     H        0.55260    0.16180    0.54870    1.000
    C1225    C        0.59230    0.27706    0.87700    1.000
    C1226    C        0.62790    0.27085    0.87920    1.000
    H525     H        0.64030    0.26410    0.85940    1.000
    C1227    C        0.64510    0.27475    0.91080    1.000
    C1228    C        0.62660    0.28490    0.94030    1.000
    H526     H        0.63810    0.28750    0.96150    1.000
    C1229    C        0.59100    0.29110    0.93820    1.000
    C1230    C        0.57380    0.28717    0.90650    1.000
    H527     H        0.55000    0.29130    0.90500    1.000
    C1231    C        0.57070    0.30180    0.96861    1.000
    C1232    C        0.54200    0.32390    0.96857    1.000
    H528     H        0.53240    0.33130    0.94750    1.000
    Sm45     Sm       0.91110    0.24333    0.25693    1.000
    O397     O        0.96154    0.21930    0.34240    1.000
    O398     O        0.91271    0.23780    0.31849    1.000
    O399     O        0.80018    0.23898    0.38257    1.000
    O400     O        0.80010    0.23280    0.43899    1.000
    O401     O        0.93893    0.25120    0.20050    1.000
    O402     O        0.88317    0.24350    0.20025    1.000
    O403     O        0.81793    0.25522    0.08739    1.000
    O404     O        0.83940    0.29620    0.05370    1.000
    O405     O        0.97169    0.23015    0.26763    1.000
    C1233    C        0.92929    0.22634    0.34390    1.000
    C1234    C        0.90810    0.22010    0.37640    1.000
    C1235    C        0.87330    0.23000    0.37640    1.000
    H529     H        0.86350    0.24010    0.35660    1.000
    C1236    C        0.85290    0.22470    0.40590    1.000
    C1237    C        0.86750    0.20960    0.43540    1.000
    H530     H        0.85390    0.20600    0.45520    1.000
    C1238    C        0.90230    0.19970    0.43540    1.000
    C1239    C        0.92270    0.20500    0.40590    1.000
    H531     H        0.94600    0.19840    0.40590    1.000
    C1240    C        0.81581    0.23271    0.41070    1.000
    C1241    C        0.91430    0.18360    0.46860    1.000
    C1242    C        0.93800    0.15590    0.46857    1.000
    H532     H        0.94590    0.14680    0.44750    1.000
    C1243    C        0.91054    0.25104    0.18474    1.000
    C1244    C        0.90879    0.26000    0.14685    1.000
    C1245    C        0.87790    0.25940    0.12791    1.000
    H533     H        0.85790    0.24970    0.13760    1.000
    C1246    C        0.87687    0.27320    0.09442    1.000
    C1247    C        0.90674    0.28770    0.07987    1.000
    H534     H        0.90610    0.29690    0.05750    1.000
    C1248    C        0.93763    0.28830    0.09880    1.000
    C1249    C        0.93866    0.27450    0.13230    1.000
    H535     H        0.95930    0.27500    0.14500    1.000
    C1250    C        0.84190    0.27460    0.07747    1.000
    C1251    C        0.96877    0.30290    0.08170    1.000
    C1252    C        0.96847    0.32940    0.05690    1.000
    H536     H        0.94740    0.33820    0.04870    1.000
    C1253    C        0.90770    0.22294    0.37700    1.000
    C1254    C        0.87210    0.22915    0.37920    1.000
    H537     H        0.85970    0.23590    0.35940    1.000
    C1255    C        0.85490    0.22525    0.41080    1.000
    C1256    C        0.87340    0.21510    0.44030    1.000
    H538     H        0.86190    0.21250    0.46150    1.000
    C1257    C        0.90900    0.20890    0.43820    1.000
    C1258    C        0.92620    0.21283    0.40650    1.000
    H539     H        0.95000    0.20870    0.40500    1.000
    C1259    C        0.92930    0.19820    0.46861    1.000
    C1260    C        0.95800    0.17610    0.46857    1.000
    H540     H        0.96760    0.16870    0.44750    1.000
    Sm46     Sm       0.41110    0.74333    0.75693    1.000
    O406     O        0.46154    0.71930    0.84240    1.000
    O407     O        0.41271    0.73780    0.81849    1.000
    O408     O        0.30018    0.73898    0.88257    1.000
    O409     O        0.30010    0.73280    0.93899    1.000
    O410     O        0.43893    0.75120    0.70050    1.000
    O411     O        0.38317    0.74350    0.70025    1.000
    O412     O        0.31793    0.75522    0.58739    1.000
    O413     O        0.33940    0.79620    0.55370    1.000
    O414     O        0.47169    0.73015    0.76763    1.000
    C1261    C        0.42929    0.72634    0.84390    1.000
    C1262    C        0.40810    0.72010    0.87640    1.000
    C1263    C        0.37330    0.73000    0.87640    1.000
    H541     H        0.36350    0.74010    0.85660    1.000
    C1264    C        0.35290    0.72470    0.90590    1.000
    C1265    C        0.36750    0.70960    0.93540    1.000
    H542     H        0.35390    0.70600    0.95520    1.000
    C1266    C        0.40230    0.69970    0.93540    1.000
    C1267    C        0.42270    0.70500    0.90590    1.000
    H543     H        0.44600    0.69840    0.90590    1.000
    C1268    C        0.31581    0.73271    0.91070    1.000
    C1269    C        0.41430    0.68360    0.96860    1.000
    C1270    C        0.43800    0.65590    0.96857    1.000
    H544     H        0.44590    0.64680    0.94750    1.000
    C1271    C        0.41054    0.75104    0.68474    1.000
    C1272    C        0.40879    0.76000    0.64685    1.000
    C1273    C        0.37790    0.75940    0.62791    1.000
    H545     H        0.35790    0.74970    0.63760    1.000
    C1274    C        0.37687    0.77320    0.59442    1.000
    C1275    C        0.40674    0.78770    0.57987    1.000
    H546     H        0.40610    0.79690    0.55750    1.000
    C1276    C        0.43763    0.78830    0.59880    1.000
    C1277    C        0.43866    0.77450    0.63230    1.000
    H547     H        0.45930    0.77500    0.64500    1.000
    C1278    C        0.34190    0.77460    0.57747    1.000
    C1279    C        0.46877    0.80290    0.58170    1.000
    C1280    C        0.46847    0.82940    0.55690    1.000
    H548     H        0.44740    0.83820    0.54870    1.000
    C1281    C        0.40770    0.72294    0.87700    1.000
    C1282    C        0.37210    0.72915    0.87920    1.000
    H549     H        0.35970    0.73590    0.85940    1.000
    C1283    C        0.35490    0.72525    0.91080    1.000
    C1284    C        0.37340    0.71510    0.94030    1.000
    H550     H        0.36190    0.71250    0.96150    1.000
    C1285    C        0.40900    0.70890    0.93820    1.000
    C1286    C        0.42620    0.71283    0.90650    1.000
    H551     H        0.45000    0.70870    0.90500    1.000
    C1287    C        0.42930    0.69820    0.96861    1.000
    C1288    C        0.45800    0.67610    0.96857    1.000
    H552     H        0.46760    0.66870    0.94750    1.000
    Sm47     Sm       0.08890    0.24333    0.74307    1.000
    O415     O        0.03846    0.21930    0.65760    1.000
    O416     O        0.08729    0.23780    0.68151    1.000
    O417     O        0.19982    0.23898    0.61743    1.000
    O418     O        0.19990    0.23280    0.56101    1.000
    O419     O        0.06107    0.25120    0.79950    1.000
    O420     O        0.11683    0.24350    0.79975    1.000
    O421     O        0.18207    0.25522    0.91261    1.000
    O422     O        0.16060    0.29620    0.94630    1.000
    O423     O        0.02831    0.23015    0.73237    1.000
    C1289    C        0.07071    0.22634    0.65610    1.000
    C1290    C        0.09190    0.22010    0.62360    1.000
    C1291    C        0.12670    0.23000    0.62360    1.000
    H553     H        0.13650    0.24010    0.64340    1.000
    C1292    C        0.14710    0.22470    0.59410    1.000
    C1293    C        0.13250    0.20960    0.56460    1.000
    H554     H        0.14610    0.20600    0.54480    1.000
    C1294    C        0.09770    0.19970    0.56460    1.000
    C1295    C        0.07730    0.20500    0.59410    1.000
    H555     H        0.05400    0.19840    0.59410    1.000
    C1296    C        0.18419    0.23271    0.58930    1.000
    C1297    C        0.08570    0.18360    0.53140    1.000
    C1298    C        0.06200    0.15590    0.53143    1.000
    H556     H        0.05410    0.14680    0.55250    1.000
    C1299    C        0.08946    0.25104    0.81526    1.000
    C1300    C        0.09121    0.26000    0.85315    1.000
    C1301    C        0.12210    0.25940    0.87209    1.000
    H557     H        0.14210    0.24970    0.86240    1.000
    C1302    C        0.12313    0.27320    0.90558    1.000
    C1303    C        0.09326    0.28770    0.92013    1.000
    H558     H        0.09390    0.29690    0.94250    1.000
    C1304    C        0.06237    0.28830    0.90120    1.000
    C1305    C        0.06134    0.27450    0.86770    1.000
    H559     H        0.04070    0.27500    0.85500    1.000
    C1306    C        0.15810    0.27460    0.92253    1.000
    C1307    C        0.03123    0.30290    0.91830    1.000
    C1308    C        0.03153    0.32940    0.94310    1.000
    H560     H        0.05260    0.33820    0.95130    1.000
    C1309    C        0.09230    0.22294    0.62300    1.000
    C1310    C        0.12790    0.22915    0.62080    1.000
    H561     H        0.14030    0.23590    0.64060    1.000
    C1311    C        0.14510    0.22525    0.58920    1.000
    C1312    C        0.12660    0.21510    0.55970    1.000
    H562     H        0.13810    0.21250    0.53850    1.000
    C1313    C        0.09100    0.20890    0.56180    1.000
    C1314    C        0.07380    0.21283    0.59350    1.000
    H563     H        0.05000    0.20870    0.59500    1.000
    C1315    C        0.07070    0.19820    0.53139    1.000
    C1316    C        0.04200    0.17610    0.53143    1.000
    H564     H        0.03240    0.16870    0.55250    1.000
    Sm48     Sm       0.58890    0.74333    0.24307    1.000
    O424     O        0.53846    0.71930    0.15760    1.000
    O425     O        0.58729    0.73780    0.18151    1.000
    O426     O        0.69982    0.73898    0.11743    1.000
    O427     O        0.69990    0.73280    0.06101    1.000
    O428     O        0.56107    0.75120    0.29950    1.000
    O429     O        0.61683    0.74350    0.29975    1.000
    O430     O        0.68207    0.75522    0.41261    1.000
    O431     O        0.66060    0.79620    0.44630    1.000
    O432     O        0.52831    0.73015    0.23237    1.000
    C1317    C        0.57071    0.72634    0.15610    1.000
    C1318    C        0.59190    0.72010    0.12360    1.000
    C1319    C        0.62670    0.73000    0.12360    1.000
    H565     H        0.63650    0.74010    0.14340    1.000
    C1320    C        0.64710    0.72470    0.09410    1.000
    C1321    C        0.63250    0.70960    0.06460    1.000
    H566     H        0.64610    0.70600    0.04480    1.000
    C1322    C        0.59770    0.69970    0.06460    1.000
    C1323    C        0.57730    0.70500    0.09410    1.000
    H567     H        0.55400    0.69840    0.09410    1.000
    C1324    C        0.68419    0.73271    0.08930    1.000
    C1325    C        0.58570    0.68360    0.03140    1.000
    C1326    C        0.56200    0.65590    0.03143    1.000
    H568     H        0.55410    0.64680    0.05250    1.000
    C1327    C        0.58946    0.75104    0.31526    1.000
    C1328    C        0.59121    0.76000    0.35315    1.000
    C1329    C        0.62210    0.75940    0.37209    1.000
    H569     H        0.64210    0.74970    0.36240    1.000
    C1330    C        0.62313    0.77320    0.40558    1.000
    C1331    C        0.59326    0.78770    0.42013    1.000
    H570     H        0.59390    0.79690    0.44250    1.000
    C1332    C        0.56237    0.78830    0.40120    1.000
    C1333    C        0.56134    0.77450    0.36770    1.000
    H571     H        0.54070    0.77500    0.35500    1.000
    C1334    C        0.65810    0.77460    0.42253    1.000
    C1335    C        0.53123    0.80290    0.41830    1.000
    C1336    C        0.53153    0.82940    0.44310    1.000
    H572     H        0.55260    0.83820    0.45130    1.000
    C1337    C        0.59230    0.72294    0.12300    1.000
    C1338    C        0.62790    0.72915    0.12080    1.000
    H573     H        0.64030    0.73590    0.14060    1.000
    C1339    C        0.64510    0.72525    0.08920    1.000
    C1340    C        0.62660    0.71510    0.05970    1.000
    H574     H        0.63810    0.71250    0.03850    1.000
    C1341    C        0.59100    0.70890    0.06180    1.000
    C1342    C        0.57380    0.71283    0.09350    1.000
    H575     H        0.55000    0.70870    0.09500    1.000
    C1343    C        0.57070    0.69820    0.03139    1.000
    C1344    C        0.54200    0.67610    0.03143    1.000
    H576     H        0.53240    0.66870    0.05250    1.000
    Sm49     Sm       0.30942    0.00000    0.18572    1.000
    O433     O        0.32370    0.00000    0.11910    1.000
    O434     O        0.36860    0.00000    0.15330    1.000
    N1       N        0.09430    0.00000    0.28940    1.000
    C1345    C        0.04450    0.00000    0.34260    1.000
    H577     H        0.02800    0.00000    0.36030    1.000
    C1346    C        0.25690    0.00000    0.24190    1.000
    H578     H        0.24050    0.00000    0.25970    1.000
    C1347    C        0.35570    0.00000    0.12330    1.000
    H579     H        0.37040    0.00000    0.10400    1.000
    Sm50     Sm       0.80942    0.50000    0.68572    1.000
    O435     O        0.82370    0.50000    0.61910    1.000
    O436     O        0.86860    0.50000    0.65330    1.000
    N2       N        0.59430    0.50000    0.78940    1.000
    C1348    C        0.54450    0.50000    0.84260    1.000
    H580     H        0.52800    0.50000    0.86030    1.000
    C1349    C        0.75690    0.50000    0.74190    1.000
    H581     H        0.74050    0.50000    0.75970    1.000
    C1350    C        0.85570    0.50000    0.62330    1.000
    H582     H        0.87040    0.50000    0.60400    1.000
    Sm51     Sm       0.69058    0.00000    0.18572    1.000
    O437     O        0.67630    0.00000    0.11910    1.000
    O438     O        0.63140    0.00000    0.15330    1.000
    N3       N        0.90570    0.00000    0.28940    1.000
    C1351    C        0.95550    0.00000    0.34260    1.000
    H583     H        0.97200    0.00000    0.36030    1.000
    C1352    C        0.74310    0.00000    0.24190    1.000
    H584     H        0.75950    0.00000    0.25970    1.000
    C1353    C        0.64430    0.00000    0.12330    1.000
    H585     H        0.62960    0.00000    0.10400    1.000
    Sm52     Sm       0.19058    0.50000    0.68572    1.000
    O439     O        0.17630    0.50000    0.61910    1.000
    O440     O        0.13140    0.50000    0.65330    1.000
    N4       N        0.40570    0.50000    0.78940    1.000
    C1354    C        0.45550    0.50000    0.84260    1.000
    H586     H        0.47200    0.50000    0.86030    1.000
    C1355    C        0.24310    0.50000    0.74190    1.000
    H587     H        0.25950    0.50000    0.75970    1.000
    C1356    C        0.14430    0.50000    0.62330    1.000
    H588     H        0.12960    0.50000    0.60400    1.000
    Sm53     Sm       0.69058    0.00000    0.81428    1.000
    O441     O        0.67630    0.00000    0.88090    1.000
    O442     O        0.63140    0.00000    0.84670    1.000
    N5       N        0.90570    0.00000    0.71060    1.000
    C1357    C        0.95550    0.00000    0.65740    1.000
    H589     H        0.97200    0.00000    0.63970    1.000
    C1358    C        0.74310    0.00000    0.75810    1.000
    H590     H        0.75950    0.00000    0.74030    1.000
    C1359    C        0.64430    0.00000    0.87670    1.000
    H591     H        0.62960    0.00000    0.89600    1.000
    Sm54     Sm       0.19058    0.50000    0.31428    1.000
    O443     O        0.17630    0.50000    0.38090    1.000
    O444     O        0.13140    0.50000    0.34670    1.000
    N6       N        0.40570    0.50000    0.21060    1.000
    C1360    C        0.45550    0.50000    0.15740    1.000
    H592     H        0.47200    0.50000    0.13970    1.000
    C1361    C        0.24310    0.50000    0.25810    1.000
    H593     H        0.25950    0.50000    0.24030    1.000
    C1362    C        0.14430    0.50000    0.37670    1.000
    H594     H        0.12960    0.50000    0.39600    1.000
    Sm55     Sm       0.30942    0.00000    0.81428    1.000
    O445     O        0.32370    0.00000    0.88090    1.000
    O446     O        0.36860    0.00000    0.84670    1.000
    N7       N        0.09430    0.00000    0.71060    1.000
    C1363    C        0.04450    0.00000    0.65740    1.000
    H595     H        0.02800    0.00000    0.63970    1.000
    C1364    C        0.25690    0.00000    0.75810    1.000
    H596     H        0.24050    0.00000    0.74030    1.000
    C1365    C        0.35570    0.00000    0.87670    1.000
    H597     H        0.37040    0.00000    0.89600    1.000
    Sm56     Sm       0.80942    0.50000    0.31428    1.000
    O447     O        0.82370    0.50000    0.38090    1.000
    O448     O        0.86860    0.50000    0.34670    1.000
    N8       N        0.59430    0.50000    0.21060    1.000
    C1366    C        0.54450    0.50000    0.15740    1.000
    H598     H        0.52800    0.50000    0.13970    1.000
    C1367    C        0.75690    0.50000    0.25810    1.000
    H599     H        0.74050    0.50000    0.24030    1.000
    C1368    C        0.85570    0.50000    0.37670    1.000
    H600     H        0.87040    0.50000    0.39600    1.000
    Sm57     Sm       0.18572    0.30942    0.00000    1.000
    O449     O        0.11910    0.32370    0.00000    1.000
    O450     O        0.15330    0.36860    0.00000    1.000
    N9       N        0.28940    0.09430    0.00000    1.000
    C1369    C        0.34260    0.04450    0.00000    1.000
    H601     H        0.36030    0.02800    0.00000    1.000
    C1370    C        0.24190    0.25690    0.00000    1.000
    H602     H        0.25970    0.24050    0.00000    1.000
    C1371    C        0.12330    0.35570    0.00000    1.000
    H603     H        0.10400    0.37040    0.00000    1.000
    Sm58     Sm       0.68572    0.80942    0.50000    1.000
    O451     O        0.61910    0.82370    0.50000    1.000
    O452     O        0.65330    0.86860    0.50000    1.000
    N10      N        0.78940    0.59430    0.50000    1.000
    C1372    C        0.84260    0.54450    0.50000    1.000
    H604     H        0.86030    0.52800    0.50000    1.000
    C1373    C        0.74190    0.75690    0.50000    1.000
    H605     H        0.75970    0.74050    0.50000    1.000
    C1374    C        0.62330    0.85570    0.50000    1.000
    H606     H        0.60400    0.87040    0.50000    1.000
    Sm59     Sm       0.18572    0.69058    0.00000    1.000
    O453     O        0.11910    0.67630    0.00000    1.000
    O454     O        0.15330    0.63140    0.00000    1.000
    N11      N        0.28940    0.90570    0.00000    1.000
    C1375    C        0.34260    0.95550    0.00000    1.000
    H607     H        0.36030    0.97200    0.00000    1.000
    C1376    C        0.24190    0.74310    0.00000    1.000
    H608     H        0.25970    0.75950    0.00000    1.000
    C1377    C        0.12330    0.64430    0.00000    1.000
    H609     H        0.10400    0.62960    0.00000    1.000
    Sm60     Sm       0.68572    0.19058    0.50000    1.000
    O455     O        0.61910    0.17630    0.50000    1.000
    O456     O        0.65330    0.13140    0.50000    1.000
    N12      N        0.78940    0.40570    0.50000    1.000
    C1378    C        0.84260    0.45550    0.50000    1.000
    H610     H        0.86030    0.47200    0.50000    1.000
    C1379    C        0.74190    0.24310    0.50000    1.000
    H611     H        0.75970    0.25950    0.50000    1.000
    C1380    C        0.62330    0.14430    0.50000    1.000
    H612     H        0.60400    0.12960    0.50000    1.000
    Sm61     Sm       0.81428    0.69058    0.00000    1.000
    O457     O        0.88090    0.67630    0.00000    1.000
    O458     O        0.84670    0.63140    0.00000    1.000
    N13      N        0.71060    0.90570    0.00000    1.000
    C1381    C        0.65740    0.95550    0.00000    1.000
    H613     H        0.63970    0.97200    0.00000    1.000
    C1382    C        0.75810    0.74310    0.00000    1.000
    H614     H        0.74030    0.75950    0.00000    1.000
    C1383    C        0.87670    0.64430    0.00000    1.000
    H615     H        0.89600    0.62960    0.00000    1.000
    Sm62     Sm       0.31428    0.19058    0.50000    1.000
    O459     O        0.38090    0.17630    0.50000    1.000
    O460     O        0.34670    0.13140    0.50000    1.000
    N14      N        0.21060    0.40570    0.50000    1.000
    C1384    C        0.15740    0.45550    0.50000    1.000
    H616     H        0.13970    0.47200    0.50000    1.000
    C1385    C        0.25810    0.24310    0.50000    1.000
    H617     H        0.24030    0.25950    0.50000    1.000
    C1386    C        0.37670    0.14430    0.50000    1.000
    H618     H        0.39600    0.12960    0.50000    1.000
    Sm63     Sm       0.81428    0.30942    0.00000    1.000
    O461     O        0.88090    0.32370    0.00000    1.000
    O462     O        0.84670    0.36860    0.00000    1.000
    N15      N        0.71060    0.09430    0.00000    1.000
    C1387    C        0.65740    0.04450    0.00000    1.000
    H619     H        0.63970    0.02800    0.00000    1.000
    C1388    C        0.75810    0.25690    0.00000    1.000
    H620     H        0.74030    0.24050    0.00000    1.000
    C1389    C        0.87670    0.35570    0.00000    1.000
    H621     H        0.89600    0.37040    0.00000    1.000
    Sm64     Sm       0.31428    0.80942    0.50000    1.000
    O463     O        0.38090    0.82370    0.50000    1.000
    O464     O        0.34670    0.86860    0.50000    1.000
    N16      N        0.21060    0.59430    0.50000    1.000
    C1390    C        0.15740    0.54450    0.50000    1.000
    H622     H        0.13970    0.52800    0.50000    1.000
    C1391    C        0.25810    0.75690    0.50000    1.000
    H623     H        0.24030    0.74050    0.50000    1.000
    C1392    C        0.37670    0.85570    0.50000    1.000
    H624     H        0.39600    0.87040    0.50000    1.000
    Sm65     Sm       0.00000    0.18572    0.30942    1.000
    O465     O        0.00000    0.11910    0.32370    1.000
    O466     O        0.00000    0.15330    0.36860    1.000
    N17      N        0.00000    0.28940    0.09430    1.000
    C1393    C        0.00000    0.34260    0.04450    1.000
    H625     H        0.00000    0.36030    0.02800    1.000
    C1394    C        0.00000    0.24190    0.25690    1.000
    H626     H        0.00000    0.25970    0.24050    1.000
    C1395    C        0.00000    0.12330    0.35570    1.000
    H627     H        0.00000    0.10400    0.37040    1.000
    Sm66     Sm       0.50000    0.68572    0.80942    1.000
    O467     O        0.50000    0.61910    0.82370    1.000
    O468     O        0.50000    0.65330    0.86860    1.000
    N18      N        0.50000    0.78940    0.59430    1.000
    C1396    C        0.50000    0.84260    0.54450    1.000
    H628     H        0.50000    0.86030    0.52800    1.000
    C1397    C        0.50000    0.74190    0.75690    1.000
    H629     H        0.50000    0.75970    0.74050    1.000
    C1398    C        0.50000    0.62330    0.85570    1.000
    H630     H        0.50000    0.60400    0.87040    1.000
    Sm67     Sm       0.00000    0.18572    0.69058    1.000
    O469     O        0.00000    0.11910    0.67630    1.000
    O470     O        0.00000    0.15330    0.63140    1.000
    N19      N        0.00000    0.28940    0.90570    1.000
    C1399    C        0.00000    0.34260    0.95550    1.000
    H631     H        0.00000    0.36030    0.97200    1.000
    C1400    C        0.00000    0.24190    0.74310    1.000
    H632     H        0.00000    0.25970    0.75950    1.000
    C1401    C        0.00000    0.12330    0.64430    1.000
    H633     H        0.00000    0.10400    0.62960    1.000
    Sm68     Sm       0.50000    0.68572    0.19058    1.000
    O471     O        0.50000    0.61910    0.17630    1.000
    O472     O        0.50000    0.65330    0.13140    1.000
    N20      N        0.50000    0.78940    0.40570    1.000
    C1402    C        0.50000    0.84260    0.45550    1.000
    H634     H        0.50000    0.86030    0.47200    1.000
    C1403    C        0.50000    0.74190    0.24310    1.000
    H635     H        0.50000    0.75970    0.25950    1.000
    C1404    C        0.50000    0.62330    0.14430    1.000
    H636     H        0.50000    0.60400    0.12960    1.000
    Sm69     Sm       0.00000    0.81428    0.69058    1.000
    O473     O        0.00000    0.88090    0.67630    1.000
    O474     O        0.00000    0.84670    0.63140    1.000
    N21      N        0.00000    0.71060    0.90570    1.000
    C1405    C        0.00000    0.65740    0.95550    1.000
    H637     H        0.00000    0.63970    0.97200    1.000
    C1406    C        0.00000    0.75810    0.74310    1.000
    H638     H        0.00000    0.74030    0.75950    1.000
    C1407    C        0.00000    0.87670    0.64430    1.000
    H639     H        0.00000    0.89600    0.62960    1.000
    Sm70     Sm       0.50000    0.31428    0.19058    1.000
    O475     O        0.50000    0.38090    0.17630    1.000
    O476     O        0.50000    0.34670    0.13140    1.000
    N22      N        0.50000    0.21060    0.40570    1.000
    C1408    C        0.50000    0.15740    0.45550    1.000
    H640     H        0.50000    0.13970    0.47200    1.000
    C1409    C        0.50000    0.25810    0.24310    1.000
    H641     H        0.50000    0.24030    0.25950    1.000
    C1410    C        0.50000    0.37670    0.14430    1.000
    H642     H        0.50000    0.39600    0.12960    1.000
    Sm71     Sm       0.00000    0.81428    0.30942    1.000
    O477     O        0.00000    0.88090    0.32370    1.000
    O478     O        0.00000    0.84670    0.36860    1.000
    N23      N        0.00000    0.71060    0.09430    1.000
    C1411    C        0.00000    0.65740    0.04450    1.000
    H643     H        0.00000    0.63970    0.02800    1.000
    C1412    C        0.00000    0.75810    0.25690    1.000
    H644     H        0.00000    0.74030    0.24050    1.000
    C1413    C        0.00000    0.87670    0.35570    1.000
    H645     H        0.00000    0.89600    0.37040    1.000
    Sm72     Sm       0.50000    0.31428    0.80942    1.000
    O479     O        0.50000    0.38090    0.82370    1.000
    O480     O        0.50000    0.34670    0.86860    1.000
    N24      N        0.50000    0.21060    0.59430    1.000
    C1414    C        0.50000    0.15740    0.54450    1.000
    H646     H        0.50000    0.13970    0.52800    1.000
    C1415    C        0.50000    0.25810    0.75690    1.000
    H647     H        0.50000    0.24030    0.74050    1.000
    C1416    C        0.50000    0.37670    0.85570    1.000
    H648     H        0.50000    0.39600    0.87040    1.000
    N25      N        0.50000    0.09730    0.19710    1.000
    C1417    C        0.50000    0.05010    0.14210    1.000
    H649     H        0.50000    0.03440    0.12360    1.000
    N26      N        0.50000    0.08500    0.20930    1.000
    C1418    C        0.50000    0.02760    0.16490    1.000
    H650     H        0.50000    0.00840    0.15010    1.000
    N27      N        0.00000    0.59730    0.69710    1.000
    C1419    C        0.00000    0.55010    0.64210    1.000
    H651     H        0.00000    0.53440    0.62360    1.000
    N28      N        0.00000    0.58500    0.70930    1.000
    C1420    C        0.00000    0.52760    0.66490    1.000
    H652     H        0.00000    0.50840    0.65010    1.000
    N29      N        0.50000    0.90270    0.19710    1.000
    C1421    C        0.50000    0.94990    0.14210    1.000
    H653     H        0.50000    0.96560    0.12360    1.000
    N30      N        0.50000    0.91500    0.20930    1.000
    C1422    C        0.50000    0.97240    0.16490    1.000
    H654     H        0.50000    0.99160    0.15010    1.000
    N31      N        0.00000    0.40270    0.69710    1.000
    C1423    C        0.00000    0.44990    0.64210    1.000
    H655     H        0.00000    0.46560    0.62360    1.000
    N32      N        0.00000    0.41500    0.70930    1.000
    C1424    C        0.00000    0.47240    0.66490    1.000
    H656     H        0.00000    0.49160    0.65010    1.000
    N33      N        0.50000    0.09730    0.80290    1.000
    C1425    C        0.50000    0.05010    0.85790    1.000
    H657     H        0.50000    0.03440    0.87640    1.000
    N34      N        0.50000    0.08500    0.79070    1.000
    C1426    C        0.50000    0.02760    0.83510    1.000
    H658     H        0.50000    0.00840    0.84990    1.000
    N35      N        0.00000    0.59730    0.30290    1.000
    C1427    C        0.00000    0.55010    0.35790    1.000
    H659     H        0.00000    0.53440    0.37640    1.000
    N36      N        0.00000    0.58500    0.29070    1.000
    C1428    C        0.00000    0.52760    0.33510    1.000
    H660     H        0.00000    0.50840    0.34990    1.000
    N37      N        0.50000    0.90270    0.80290    1.000
    C1429    C        0.50000    0.94990    0.85790    1.000
    H661     H        0.50000    0.96560    0.87640    1.000
    N38      N        0.50000    0.91500    0.79070    1.000
    C1430    C        0.50000    0.97240    0.83510    1.000
    H662     H        0.50000    0.99160    0.84990    1.000
    N39      N        0.00000    0.40270    0.30290    1.000
    C1431    C        0.00000    0.44990    0.35790    1.000
    H663     H        0.00000    0.46560    0.37640    1.000
    N40      N        0.00000    0.41500    0.29070    1.000
    C1432    C        0.00000    0.47240    0.33510    1.000
    H664     H        0.00000    0.49160    0.34990    1.000
    N41      N        0.19710    0.50000    0.09730    1.000
    C1433    C        0.14210    0.50000    0.05010    1.000
    H665     H        0.12360    0.50000    0.03440    1.000
    N42      N        0.20930    0.50000    0.08500    1.000
    C1434    C        0.16490    0.50000    0.02760    1.000
    H666     H        0.15010    0.50000    0.00840    1.000
    N43      N        0.69710    0.00000    0.59730    1.000
    C1435    C        0.64210    0.00000    0.55010    1.000
    H667     H        0.62360    0.00000    0.53440    1.000
    N44      N        0.70930    0.00000    0.58500    1.000
    C1436    C        0.66490    0.00000    0.52760    1.000
    H668     H        0.65010    0.00000    0.50840    1.000
    N45      N        0.19710    0.50000    0.90270    1.000
    C1437    C        0.14210    0.50000    0.94990    1.000
    H669     H        0.12360    0.50000    0.96560    1.000
    N46      N        0.20930    0.50000    0.91500    1.000
    C1438    C        0.16490    0.50000    0.97240    1.000
    H670     H        0.15010    0.50000    0.99160    1.000
    N47      N        0.69710    0.00000    0.40270    1.000
    C1439    C        0.64210    0.00000    0.44990    1.000
    H671     H        0.62360    0.00000    0.46560    1.000
    N48      N        0.70930    0.00000    0.41500    1.000
    C1440    C        0.66490    0.00000    0.47240    1.000
    H672     H        0.65010    0.00000    0.49160    1.000
    N49      N        0.80290    0.50000    0.09730    1.000
    C1441    C        0.85790    0.50000    0.05010    1.000
    H673     H        0.87640    0.50000    0.03440    1.000
    N50      N        0.79070    0.50000    0.08500    1.000
    C1442    C        0.83510    0.50000    0.02760    1.000
    H674     H        0.84990    0.50000    0.00840    1.000
    N51      N        0.30290    0.00000    0.59730    1.000
    C1443    C        0.35790    0.00000    0.55010    1.000
    H675     H        0.37640    0.00000    0.53440    1.000
    N52      N        0.29070    0.00000    0.58500    1.000
    C1444    C        0.33510    0.00000    0.52760    1.000
    H676     H        0.34990    0.00000    0.50840    1.000
    N53      N        0.80290    0.50000    0.90270    1.000
    C1445    C        0.85790    0.50000    0.94990    1.000
    H677     H        0.87640    0.50000    0.96560    1.000
    N54      N        0.79070    0.50000    0.91500    1.000
    C1446    C        0.83510    0.50000    0.97240    1.000
    H678     H        0.84990    0.50000    0.99160    1.000
    N55      N        0.30290    0.00000    0.40270    1.000
    C1447    C        0.35790    0.00000    0.44990    1.000
    H679     H        0.37640    0.00000    0.46560    1.000
    N56      N        0.29070    0.00000    0.41500    1.000
    C1448    C        0.33510    0.00000    0.47240    1.000
    H680     H        0.34990    0.00000    0.49160    1.000
    N57      N        0.09730    0.19710    0.50000    1.000
    C1449    C        0.05010    0.14210    0.50000    1.000
    H681     H        0.03440    0.12360    0.50000    1.000
    N58      N        0.08500    0.20930    0.50000    1.000
    C1450    C        0.02760    0.16490    0.50000    1.000
    H682     H        0.00840    0.15010    0.50000    1.000
    N59      N        0.59730    0.69710    0.00000    1.000
    C1451    C        0.55010    0.64210    0.00000    1.000
    H683     H        0.53440    0.62360    0.00000    1.000
    N60      N        0.58500    0.70930    0.00000    1.000
    C1452    C        0.52760    0.66490    0.00000    1.000
    H684     H        0.50840    0.65010    0.00000    1.000
    N61      N        0.90270    0.19710    0.50000    1.000
    C1453    C        0.94990    0.14210    0.50000    1.000
    H685     H        0.96560    0.12360    0.50000    1.000
    N62      N        0.91500    0.20930    0.50000    1.000
    C1454    C        0.97240    0.16490    0.50000    1.000
    H686     H        0.99160    0.15010    0.50000    1.000
    N63      N        0.40270    0.69710    0.00000    1.000
    C1455    C        0.44990    0.64210    0.00000    1.000
    H687     H        0.46560    0.62360    0.00000    1.000
    N64      N        0.41500    0.70930    0.00000    1.000
    C1456    C        0.47240    0.66490    0.00000    1.000
    H688     H        0.49160    0.65010    0.00000    1.000
    N65      N        0.09730    0.80290    0.50000    1.000
    C1457    C        0.05010    0.85790    0.50000    1.000
    H689     H        0.03440    0.87640    0.50000    1.000
    N66      N        0.08500    0.79070    0.50000    1.000
    C1458    C        0.02760    0.83510    0.50000    1.000
    H690     H        0.00840    0.84990    0.50000    1.000
    N67      N        0.59730    0.30290    0.00000    1.000
    C1459    C        0.55010    0.35790    0.00000    1.000
    H691     H        0.53440    0.37640    0.00000    1.000
    N68      N        0.58500    0.29070    0.00000    1.000
    C1460    C        0.52760    0.33510    0.00000    1.000
    H692     H        0.50840    0.34990    0.00000    1.000
    N69      N        0.90270    0.80290    0.50000    1.000
    C1461    C        0.94990    0.85790    0.50000    1.000
    H693     H        0.96560    0.87640    0.50000    1.000
    N70      N        0.91500    0.79070    0.50000    1.000
    C1462    C        0.97240    0.83510    0.50000    1.000
    H694     H        0.99160    0.84990    0.50000    1.000
    N71      N        0.40270    0.30290    0.00000    1.000
    C1463    C        0.44990    0.35790    0.00000    1.000
    H695     H        0.46560    0.37640    0.00000    1.000
    N72      N        0.41500    0.29070    0.00000    1.000
    C1464    C        0.47240    0.33510    0.00000    1.000
    H696     H        0.49160    0.34990    0.00000    1.000
