# CIF file generated by openbabel 3.1.0, see https://openbabel.org
data_I
_chemical_name_common 'image0'
_cell_length_a 25.3961
_cell_length_b 25.3961
_cell_length_c 25.3961
_cell_angle_alpha 90
_cell_angle_beta 90
_cell_angle_gamma 90
_space_group_name_H-M_alt 'P 1'
_space_group_name_Hall 'P 1'
loop_
    _symmetry_equiv_pos_as_xyz
    x,y,z
loop_
    _atom_site_label
    _atom_site_type_symbol
    _atom_site_fract_x
    _atom_site_fract_y
    _atom_site_fract_z
    _atom_site_occupancy
    C1       C        0.18900    0.42340    0.23790    1.000
    H1       H        0.18640    0.41260    0.27370    1.000
    C2       C        0.19600    0.42430    0.15740    1.000
    H2       H        0.20100    0.41420    0.12170    1.000
    C3       C        0.18660    0.47230    0.17150    1.000
    H3       H        0.18240    0.50160    0.14870    1.000
    C4       C        0.17700    0.51820    0.25360    1.000
    C5       C        0.16590    0.56590    0.22920    1.000
    H4       H        0.16520    0.56810    0.19180    1.000
    C6       C        0.15590    0.61050    0.25930    1.000
    H5       H        0.14830    0.64310    0.24260    1.000
    C7       C        0.15690    0.60730    0.31400    1.000
    C8       C        0.16800    0.55960    0.33840    1.000
    H6       H        0.16870    0.55740    0.37580    1.000
    C9       C        0.17800    0.51500    0.30820    1.000
    H7       H        0.18550    0.48240    0.32490    1.000
    N1       N        0.19800    0.38930    0.19820    1.000
    N2       N        0.18410    0.47300    0.22290    1.000
    C10      C        0.31100    0.57660    0.73790    1.000
    H8       H        0.31360    0.58740    0.77370    1.000
    C11      C        0.30400    0.57570    0.65740    1.000
    H9       H        0.29900    0.58580    0.62170    1.000
    C12      C        0.31340    0.52770    0.67150    1.000
    H10      H        0.31760    0.49840    0.64870    1.000
    C13      C        0.32300    0.48180    0.75360    1.000
    C14      C        0.33410    0.43410    0.72920    1.000
    H11      H        0.33480    0.43190    0.69180    1.000
    C15      C        0.34410    0.38950    0.75930    1.000
    H12      H        0.35170    0.35690    0.74260    1.000
    C16      C        0.34310    0.39270    0.81400    1.000
    C17      C        0.33200    0.44040    0.83840    1.000
    H13      H        0.33130    0.44260    0.87580    1.000
    C18      C        0.32200    0.48500    0.80820    1.000
    H14      H        0.31450    0.51760    0.82490    1.000
    N3       N        0.30200    0.61070    0.69820    1.000
    N4       N        0.31590    0.52700    0.72290    1.000
    C19      C        0.81100    0.92340    0.26210    1.000
    H15      H        0.81360    0.91260    0.22630    1.000
    C20      C        0.80400    0.92430    0.34260    1.000
    H16      H        0.79900    0.91420    0.37830    1.000
    C21      C        0.81340    0.97230    0.32850    1.000
    H17      H        0.81760    0.00160    0.35130    1.000
    C22      C        0.82300    0.01820    0.24640    1.000
    C23      C        0.83410    0.06590    0.27080    1.000
    H18      H        0.83480    0.06810    0.30820    1.000
    C24      C        0.84410    0.11050    0.24070    1.000
    H19      H        0.85170    0.14310    0.25740    1.000
    C25      C        0.84310    0.10730    0.18600    1.000
    C26      C        0.83200    0.05960    0.16160    1.000
    H20      H        0.83130    0.05740    0.12420    1.000
    C27      C        0.82200    0.01500    0.19180    1.000
    H21      H        0.81450    0.98240    0.17510    1.000
    N5       N        0.80200    0.88930    0.30180    1.000
    N6       N        0.81590    0.97300    0.27710    1.000
    C28      C        0.68900    0.07660    0.76210    1.000
    H22      H        0.68640    0.08740    0.72630    1.000
    C29      C        0.69600    0.07570    0.84260    1.000
    H23      H        0.70100    0.08580    0.87830    1.000
    C30      C        0.68660    0.02770    0.82850    1.000
    H24      H        0.68240    0.99840    0.85130    1.000
    C31      C        0.67700    0.98180    0.74640    1.000
    C32      C        0.66590    0.93410    0.77080    1.000
    H25      H        0.66520    0.93190    0.80820    1.000
    C33      C        0.65590    0.88950    0.74070    1.000
    H26      H        0.64830    0.85690    0.75740    1.000
    C34      C        0.65690    0.89270    0.68600    1.000
    C35      C        0.66800    0.94040    0.66160    1.000
    H27      H        0.66870    0.94260    0.62420    1.000
    C36      C        0.67800    0.98500    0.69180    1.000
    H28      H        0.68550    0.01760    0.67510    1.000
    N7       N        0.69800    0.11070    0.80180    1.000
    N8       N        0.68410    0.02700    0.77710    1.000
    C37      C        0.73790    0.18900    0.92340    1.000
    H29      H        0.77370    0.18640    0.91260    1.000
    C38      C        0.65740    0.19600    0.92430    1.000
    H30      H        0.62170    0.20100    0.91420    1.000
    C39      C        0.67150    0.18660    0.97230    1.000
    H31      H        0.64870    0.18240    0.00160    1.000
    C40      C        0.75360    0.17700    0.01820    1.000
    C41      C        0.72920    0.16590    0.06590    1.000
    H32      H        0.69180    0.16520    0.06810    1.000
    C42      C        0.75930    0.15590    0.11050    1.000
    H33      H        0.74260    0.14830    0.14310    1.000
    C43      C        0.81400    0.15690    0.10730    1.000
    C44      C        0.83840    0.16800    0.05960    1.000
    H34      H        0.87580    0.16870    0.05740    1.000
    C45      C        0.80820    0.17800    0.01500    1.000
    H35      H        0.82490    0.18550    0.98240    1.000
    N9       N        0.69820    0.19800    0.88930    1.000
    N10      N        0.72290    0.18410    0.97300    1.000
    C46      C        0.23790    0.31100    0.07660    1.000
    H36      H        0.27370    0.31360    0.08740    1.000
    C47      C        0.15740    0.30400    0.07570    1.000
    H37      H        0.12170    0.29900    0.08580    1.000
    C48      C        0.17150    0.31340    0.02770    1.000
    H38      H        0.14870    0.31760    0.99840    1.000
    C49      C        0.25360    0.32300    0.98180    1.000
    C50      C        0.22920    0.33410    0.93410    1.000
    H39      H        0.19180    0.33480    0.93190    1.000
    C51      C        0.25930    0.34410    0.88950    1.000
    H40      H        0.24260    0.35170    0.85690    1.000
    C52      C        0.31400    0.34310    0.89270    1.000
    C53      C        0.33840    0.33200    0.94040    1.000
    H41      H        0.37580    0.33130    0.94260    1.000
    C54      C        0.30820    0.32200    0.98500    1.000
    H42      H        0.32490    0.31450    0.01760    1.000
    N11      N        0.19820    0.30200    0.11070    1.000
    N12      N        0.22290    0.31590    0.02700    1.000
    C55      C        0.76210    0.81100    0.42340    1.000
    H43      H        0.72630    0.81360    0.41260    1.000
    C56      C        0.84260    0.80400    0.42430    1.000
    H44      H        0.87830    0.79900    0.41420    1.000
    C57      C        0.82850    0.81340    0.47230    1.000
    H45      H        0.85130    0.81760    0.50160    1.000
    C58      C        0.74640    0.82300    0.51820    1.000
    C59      C        0.77080    0.83410    0.56590    1.000
    H46      H        0.80820    0.83480    0.56810    1.000
    C60      C        0.74070    0.84410    0.61050    1.000
    H47      H        0.75740    0.85170    0.64310    1.000
    C61      C        0.68600    0.84310    0.60730    1.000
    C62      C        0.66160    0.83200    0.55960    1.000
    H48      H        0.62420    0.83130    0.55740    1.000
    C63      C        0.69180    0.82200    0.51500    1.000
    H49      H        0.67510    0.81450    0.48240    1.000
    N13      N        0.80180    0.80200    0.38930    1.000
    N14      N        0.77710    0.81590    0.47300    1.000
    C64      C        0.26210    0.68900    0.57660    1.000
    H50      H        0.22630    0.68640    0.58740    1.000
    C65      C        0.34260    0.69600    0.57570    1.000
    H51      H        0.37830    0.70100    0.58580    1.000
    C66      C        0.32850    0.68660    0.52770    1.000
    H52      H        0.35130    0.68240    0.49840    1.000
    C67      C        0.24640    0.67700    0.48180    1.000
    C68      C        0.27080    0.66590    0.43410    1.000
    H53      H        0.30820    0.66520    0.43190    1.000
    C69      C        0.24070    0.65590    0.38950    1.000
    H54      H        0.25740    0.64830    0.35690    1.000
    C70      C        0.18600    0.65690    0.39270    1.000
    C71      C        0.16160    0.66800    0.44040    1.000
    H55      H        0.12420    0.66870    0.44260    1.000
    C72      C        0.19180    0.67800    0.48500    1.000
    H56      H        0.17510    0.68550    0.51760    1.000
    N15      N        0.30180    0.69800    0.61070    1.000
    N16      N        0.27710    0.68410    0.52700    1.000
    C73      C        0.42340    0.73790    0.68900    1.000
    H57      H        0.41260    0.77370    0.68640    1.000
    C74      C        0.42430    0.65740    0.69600    1.000
    H58      H        0.41420    0.62170    0.70100    1.000
    C75      C        0.47230    0.67150    0.68660    1.000
    H59      H        0.50160    0.64870    0.68240    1.000
    C76      C        0.51820    0.75360    0.67700    1.000
    C77      C        0.56590    0.72920    0.66590    1.000
    H60      H        0.56810    0.69180    0.66520    1.000
    C78      C        0.61050    0.75930    0.65590    1.000
    H61      H        0.64310    0.74260    0.64830    1.000
    C79      C        0.60730    0.81400    0.65690    1.000
    C80      C        0.55960    0.83840    0.66800    1.000
    H62      H        0.55740    0.87580    0.66870    1.000
    C81      C        0.51500    0.80820    0.67800    1.000
    H63      H        0.48240    0.82490    0.68550    1.000
    N17      N        0.38930    0.69820    0.69800    1.000
    N18      N        0.47300    0.72290    0.68410    1.000
    C82      C        0.57660    0.23790    0.81100    1.000
    H64      H        0.58740    0.27370    0.81360    1.000
    C83      C        0.57570    0.15740    0.80400    1.000
    H65      H        0.58580    0.12170    0.79900    1.000
    C84      C        0.52770    0.17150    0.81340    1.000
    H66      H        0.49840    0.14870    0.81760    1.000
    C85      C        0.48180    0.25360    0.82300    1.000
    C86      C        0.43410    0.22920    0.83410    1.000
    H67      H        0.43190    0.19180    0.83480    1.000
    C87      C        0.38950    0.25930    0.84410    1.000
    H68      H        0.35690    0.24260    0.85170    1.000
    C88      C        0.39270    0.31400    0.84310    1.000
    C89      C        0.44040    0.33840    0.83200    1.000
    H69      H        0.44260    0.37580    0.83130    1.000
    C90      C        0.48500    0.30820    0.82200    1.000
    H70      H        0.51760    0.32490    0.81450    1.000
    N19      N        0.61070    0.19820    0.80200    1.000
    N20      N        0.52700    0.22290    0.81590    1.000
    C91      C        0.92340    0.76210    0.31100    1.000
    H71      H        0.91260    0.72630    0.31360    1.000
    C92      C        0.92430    0.84260    0.30400    1.000
    H72      H        0.91420    0.87830    0.29900    1.000
    C93      C        0.97230    0.82850    0.31340    1.000
    H73      H        0.00160    0.85130    0.31760    1.000
    C94      C        0.01820    0.74640    0.32300    1.000
    C95      C        0.06590    0.77080    0.33410    1.000
    H74      H        0.06810    0.80820    0.33480    1.000
    C96      C        0.11050    0.74070    0.34410    1.000
    H75      H        0.14310    0.75740    0.35170    1.000
    C97      C        0.10730    0.68600    0.34310    1.000
    C98      C        0.05960    0.66160    0.33200    1.000
    H76      H        0.05740    0.62420    0.33130    1.000
    C99      C        0.01500    0.69180    0.32200    1.000
    H77      H        0.98240    0.67510    0.31450    1.000
    N21      N        0.88930    0.80180    0.30200    1.000
    N22      N        0.97300    0.77710    0.31590    1.000
    C100     C        0.07660    0.26210    0.18900    1.000
    H78      H        0.08740    0.22630    0.18640    1.000
    C101     C        0.07570    0.34260    0.19600    1.000
    H79      H        0.08580    0.37830    0.20100    1.000
    C102     C        0.02770    0.32850    0.18660    1.000
    H80      H        0.99840    0.35130    0.18240    1.000
    C103     C        0.98180    0.24640    0.17700    1.000
    C104     C        0.93410    0.27080    0.16590    1.000
    H81      H        0.93190    0.30820    0.16520    1.000
    C105     C        0.88950    0.24070    0.15590    1.000
    H82      H        0.85690    0.25740    0.14830    1.000
    C106     C        0.89270    0.18600    0.15690    1.000
    C107     C        0.94040    0.16160    0.16800    1.000
    H83      H        0.94260    0.12420    0.16870    1.000
    C108     C        0.98500    0.19180    0.17800    1.000
    H84      H        0.01760    0.17510    0.18550    1.000
    N23      N        0.11070    0.30180    0.19800    1.000
    N24      N        0.02700    0.27710    0.18410    1.000
    Cd1      Cd       0.20011    0.29989    0.20011    1.000
    Cd2      Cd       0.79989    0.79989    0.29989    1.000
    Cd3      Cd       0.29989    0.70011    0.70011    1.000
    Cd4      Cd       0.70011    0.20011    0.79989    1.000
    N25      N        0.15530    0.65530    0.34470    1.000
    N26      N        0.84470    0.15530    0.15530    1.000
    N27      N        0.65530    0.84470    0.65530    1.000
    N28      N        0.34470    0.34470    0.84470    1.000
    C109     C        0.18900    0.92340    0.73790    1.000
    H85      H        0.18640    0.91260    0.77370    1.000
    C110     C        0.19600    0.92430    0.65740    1.000
    H86      H        0.20100    0.91420    0.62170    1.000
    C111     C        0.18660    0.97230    0.67150    1.000
    H87      H        0.18240    0.00160    0.64870    1.000
    C112     C        0.17700    0.01820    0.75360    1.000
    C113     C        0.16590    0.06590    0.72920    1.000
    H88      H        0.16520    0.06810    0.69180    1.000
    C114     C        0.15590    0.11050    0.75930    1.000
    H89      H        0.14830    0.14310    0.74260    1.000
    C115     C        0.15690    0.10730    0.81400    1.000
    C116     C        0.16800    0.05960    0.83840    1.000
    H90      H        0.16870    0.05740    0.87580    1.000
    C117     C        0.17800    0.01500    0.80820    1.000
    H91      H        0.18550    0.98240    0.82490    1.000
    N29      N        0.19800    0.88930    0.69820    1.000
    N30      N        0.18410    0.97300    0.72290    1.000
    C118     C        0.31100    0.07660    0.23790    1.000
    H92      H        0.31360    0.08740    0.27370    1.000
    C119     C        0.30400    0.07570    0.15740    1.000
    H93      H        0.29900    0.08580    0.12170    1.000
    C120     C        0.31340    0.02770    0.17150    1.000
    H94      H        0.31760    0.99840    0.14870    1.000
    C121     C        0.32300    0.98180    0.25360    1.000
    C122     C        0.33410    0.93410    0.22920    1.000
    H95      H        0.33480    0.93190    0.19180    1.000
    C123     C        0.34410    0.88950    0.25930    1.000
    H96      H        0.35170    0.85690    0.24260    1.000
    C124     C        0.34310    0.89270    0.31400    1.000
    C125     C        0.33200    0.94040    0.33840    1.000
    H97      H        0.33130    0.94260    0.37580    1.000
    C126     C        0.32200    0.98500    0.30820    1.000
    H98      H        0.31450    0.01760    0.32490    1.000
    N31      N        0.30200    0.11070    0.19820    1.000
    N32      N        0.31590    0.02700    0.22290    1.000
    C127     C        0.81100    0.42340    0.76210    1.000
    H99      H        0.81360    0.41260    0.72630    1.000
    C128     C        0.80400    0.42430    0.84260    1.000
    H100     H        0.79900    0.41420    0.87830    1.000
    C129     C        0.81340    0.47230    0.82850    1.000
    H101     H        0.81760    0.50160    0.85130    1.000
    C130     C        0.82300    0.51820    0.74640    1.000
    C131     C        0.83410    0.56590    0.77080    1.000
    H102     H        0.83480    0.56810    0.80820    1.000
    C132     C        0.84410    0.61050    0.74070    1.000
    H103     H        0.85170    0.64310    0.75740    1.000
    C133     C        0.84310    0.60730    0.68600    1.000
    C134     C        0.83200    0.55960    0.66160    1.000
    H104     H        0.83130    0.55740    0.62420    1.000
    C135     C        0.82200    0.51500    0.69180    1.000
    H105     H        0.81450    0.48240    0.67510    1.000
    N33      N        0.80200    0.38930    0.80180    1.000
    N34      N        0.81590    0.47300    0.77710    1.000
    C136     C        0.68900    0.57660    0.26210    1.000
    H106     H        0.68640    0.58740    0.22630    1.000
    C137     C        0.69600    0.57570    0.34260    1.000
    H107     H        0.70100    0.58580    0.37830    1.000
    C138     C        0.68660    0.52770    0.32850    1.000
    H108     H        0.68240    0.49840    0.35130    1.000
    C139     C        0.67700    0.48180    0.24640    1.000
    C140     C        0.66590    0.43410    0.27080    1.000
    H109     H        0.66520    0.43190    0.30820    1.000
    C141     C        0.65590    0.38950    0.24070    1.000
    H110     H        0.64830    0.35690    0.25740    1.000
    C142     C        0.65690    0.39270    0.18600    1.000
    C143     C        0.66800    0.44040    0.16160    1.000
    H111     H        0.66870    0.44260    0.12420    1.000
    C144     C        0.67800    0.48500    0.19180    1.000
    H112     H        0.68550    0.51760    0.17510    1.000
    N35      N        0.69800    0.61070    0.30180    1.000
    N36      N        0.68410    0.52700    0.27710    1.000
    C145     C        0.73790    0.68900    0.42340    1.000
    H113     H        0.77370    0.68640    0.41260    1.000
    C146     C        0.65740    0.69600    0.42430    1.000
    H114     H        0.62170    0.70100    0.41420    1.000
    C147     C        0.67150    0.68660    0.47230    1.000
    H115     H        0.64870    0.68240    0.50160    1.000
    C148     C        0.75360    0.67700    0.51820    1.000
    C149     C        0.72920    0.66590    0.56590    1.000
    H116     H        0.69180    0.66520    0.56810    1.000
    C150     C        0.75930    0.65590    0.61050    1.000
    H117     H        0.74260    0.64830    0.64310    1.000
    C151     C        0.81400    0.65690    0.60730    1.000
    C152     C        0.83840    0.66800    0.55960    1.000
    H118     H        0.87580    0.66870    0.55740    1.000
    C153     C        0.80820    0.67800    0.51500    1.000
    H119     H        0.82490    0.68550    0.48240    1.000
    N37      N        0.69820    0.69800    0.38930    1.000
    N38      N        0.72290    0.68410    0.47300    1.000
    C154     C        0.23790    0.81100    0.57660    1.000
    H120     H        0.27370    0.81360    0.58740    1.000
    C155     C        0.15740    0.80400    0.57570    1.000
    H121     H        0.12170    0.79900    0.58580    1.000
    C156     C        0.17150    0.81340    0.52770    1.000
    H122     H        0.14870    0.81760    0.49840    1.000
    C157     C        0.25360    0.82300    0.48180    1.000
    C158     C        0.22920    0.83410    0.43410    1.000
    H123     H        0.19180    0.83480    0.43190    1.000
    C159     C        0.25930    0.84410    0.38950    1.000
    H124     H        0.24260    0.85170    0.35690    1.000
    C160     C        0.31400    0.84310    0.39270    1.000
    C161     C        0.33840    0.83200    0.44040    1.000
    H125     H        0.37580    0.83130    0.44260    1.000
    C162     C        0.30820    0.82200    0.48500    1.000
    H126     H        0.32490    0.81450    0.51760    1.000
    N39      N        0.19820    0.80200    0.61070    1.000
    N40      N        0.22290    0.81590    0.52700    1.000
    C163     C        0.76210    0.31100    0.92340    1.000
    H127     H        0.72630    0.31360    0.91260    1.000
    C164     C        0.84260    0.30400    0.92430    1.000
    H128     H        0.87830    0.29900    0.91420    1.000
    C165     C        0.82850    0.31340    0.97230    1.000
    H129     H        0.85130    0.31760    0.00160    1.000
    C166     C        0.74640    0.32300    0.01820    1.000
    C167     C        0.77080    0.33410    0.06590    1.000
    H130     H        0.80820    0.33480    0.06810    1.000
    C168     C        0.74070    0.34410    0.11050    1.000
    H131     H        0.75740    0.35170    0.14310    1.000
    C169     C        0.68600    0.34310    0.10730    1.000
    C170     C        0.66160    0.33200    0.05960    1.000
    H132     H        0.62420    0.33130    0.05740    1.000
    C171     C        0.69180    0.32200    0.01500    1.000
    H133     H        0.67510    0.31450    0.98240    1.000
    N41      N        0.80180    0.30200    0.88930    1.000
    N42      N        0.77710    0.31590    0.97300    1.000
    C172     C        0.26210    0.18900    0.07660    1.000
    H134     H        0.22630    0.18640    0.08740    1.000
    C173     C        0.34260    0.19600    0.07570    1.000
    H135     H        0.37830    0.20100    0.08580    1.000
    C174     C        0.32850    0.18660    0.02770    1.000
    H136     H        0.35130    0.18240    0.99840    1.000
    C175     C        0.24640    0.17700    0.98180    1.000
    C176     C        0.27080    0.16590    0.93410    1.000
    H137     H        0.30820    0.16520    0.93190    1.000
    C177     C        0.24070    0.15590    0.88950    1.000
    H138     H        0.25740    0.14830    0.85690    1.000
    C178     C        0.18600    0.15690    0.89270    1.000
    C179     C        0.16160    0.16800    0.94040    1.000
    H139     H        0.12420    0.16870    0.94260    1.000
    C180     C        0.19180    0.17800    0.98500    1.000
    H140     H        0.17510    0.18550    0.01760    1.000
    N43      N        0.30180    0.19800    0.11070    1.000
    N44      N        0.27710    0.18410    0.02700    1.000
    C181     C        0.42340    0.23790    0.18900    1.000
    H141     H        0.41260    0.27370    0.18640    1.000
    C182     C        0.42430    0.15740    0.19600    1.000
    H142     H        0.41420    0.12170    0.20100    1.000
    C183     C        0.47230    0.17150    0.18660    1.000
    H143     H        0.50160    0.14870    0.18240    1.000
    C184     C        0.51820    0.25360    0.17700    1.000
    C185     C        0.56590    0.22920    0.16590    1.000
    H144     H        0.56810    0.19180    0.16520    1.000
    C186     C        0.61050    0.25930    0.15590    1.000
    H145     H        0.64310    0.24260    0.14830    1.000
    C187     C        0.60730    0.31400    0.15690    1.000
    C188     C        0.55960    0.33840    0.16800    1.000
    H146     H        0.55740    0.37580    0.16870    1.000
    C189     C        0.51500    0.30820    0.17800    1.000
    H147     H        0.48240    0.32490    0.18550    1.000
    N45      N        0.38930    0.19820    0.19800    1.000
    N46      N        0.47300    0.22290    0.18410    1.000
    C190     C        0.57660    0.73790    0.31100    1.000
    H148     H        0.58740    0.77370    0.31360    1.000
    C191     C        0.57570    0.65740    0.30400    1.000
    H149     H        0.58580    0.62170    0.29900    1.000
    C192     C        0.52770    0.67150    0.31340    1.000
    H150     H        0.49840    0.64870    0.31760    1.000
    C193     C        0.48180    0.75360    0.32300    1.000
    C194     C        0.43410    0.72920    0.33410    1.000
    H151     H        0.43190    0.69180    0.33480    1.000
    C195     C        0.38950    0.75930    0.34410    1.000
    H152     H        0.35690    0.74260    0.35170    1.000
    C196     C        0.39270    0.81400    0.34310    1.000
    C197     C        0.44040    0.83840    0.33200    1.000
    H153     H        0.44260    0.87580    0.33130    1.000
    C198     C        0.48500    0.80820    0.32200    1.000
    H154     H        0.51760    0.82490    0.31450    1.000
    N47      N        0.61070    0.69820    0.30200    1.000
    N48      N        0.52700    0.72290    0.31590    1.000
    C199     C        0.92340    0.26210    0.81100    1.000
    H155     H        0.91260    0.22630    0.81360    1.000
    C200     C        0.92430    0.34260    0.80400    1.000
    H156     H        0.91420    0.37830    0.79900    1.000
    C201     C        0.97230    0.32850    0.81340    1.000
    H157     H        0.00160    0.35130    0.81760    1.000
    C202     C        0.01820    0.24640    0.82300    1.000
    C203     C        0.06590    0.27080    0.83410    1.000
    H158     H        0.06810    0.30820    0.83480    1.000
    C204     C        0.11050    0.24070    0.84410    1.000
    H159     H        0.14310    0.25740    0.85170    1.000
    C205     C        0.10730    0.18600    0.84310    1.000
    C206     C        0.05960    0.16160    0.83200    1.000
    H160     H        0.05740    0.12420    0.83130    1.000
    C207     C        0.01500    0.19180    0.82200    1.000
    H161     H        0.98240    0.17510    0.81450    1.000
    N49      N        0.88930    0.30180    0.80200    1.000
    N50      N        0.97300    0.27710    0.81590    1.000
    C208     C        0.07660    0.76210    0.68900    1.000
    H162     H        0.08740    0.72630    0.68640    1.000
    C209     C        0.07570    0.84260    0.69600    1.000
    H163     H        0.08580    0.87830    0.70100    1.000
    C210     C        0.02770    0.82850    0.68660    1.000
    H164     H        0.99840    0.85130    0.68240    1.000
    C211     C        0.98180    0.74640    0.67700    1.000
    C212     C        0.93410    0.77080    0.66590    1.000
    H165     H        0.93190    0.80820    0.66520    1.000
    C213     C        0.88950    0.74070    0.65590    1.000
    H166     H        0.85690    0.75740    0.64830    1.000
    C214     C        0.89270    0.68600    0.65690    1.000
    C215     C        0.94040    0.66160    0.66800    1.000
    H167     H        0.94260    0.62420    0.66870    1.000
    C216     C        0.98500    0.69180    0.67800    1.000
    H168     H        0.01760    0.67510    0.68550    1.000
    N51      N        0.11070    0.80180    0.69800    1.000
    N52      N        0.02700    0.77710    0.68410    1.000
    Cd5      Cd       0.29989    0.20011    0.20011    1.000
    Cd6      Cd       0.79989    0.29989    0.79989    1.000
    Cd7      Cd       0.20011    0.79989    0.70011    1.000
    Cd8      Cd       0.70011    0.70011    0.29989    1.000
    N53      N        0.15530    0.15530    0.84470    1.000
    N54      N        0.84470    0.65530    0.65530    1.000
    N55      N        0.34470    0.84470    0.34470    1.000
    N56      N        0.65530    0.34470    0.15530    1.000
    C217     C        0.68900    0.42340    0.73790    1.000
    H169     H        0.68640    0.41260    0.77370    1.000
    C218     C        0.69600    0.42430    0.65740    1.000
    H170     H        0.70100    0.41420    0.62170    1.000
    C219     C        0.68660    0.47230    0.67150    1.000
    H171     H        0.68240    0.50160    0.64870    1.000
    C220     C        0.67700    0.51820    0.75360    1.000
    C221     C        0.66590    0.56590    0.72920    1.000
    H172     H        0.66520    0.56810    0.69180    1.000
    C222     C        0.65590    0.61050    0.75930    1.000
    H173     H        0.64830    0.64310    0.74260    1.000
    C223     C        0.65690    0.60730    0.81400    1.000
    C224     C        0.66800    0.55960    0.83840    1.000
    H174     H        0.66870    0.55740    0.87580    1.000
    C225     C        0.67800    0.51500    0.80820    1.000
    H175     H        0.68550    0.48240    0.82490    1.000
    N57      N        0.69800    0.38930    0.69820    1.000
    N58      N        0.68410    0.47300    0.72290    1.000
    C226     C        0.81100    0.57660    0.23790    1.000
    H176     H        0.81360    0.58740    0.27370    1.000
    C227     C        0.80400    0.57570    0.15740    1.000
    H177     H        0.79900    0.58580    0.12170    1.000
    C228     C        0.81340    0.52770    0.17150    1.000
    H178     H        0.81760    0.49840    0.14870    1.000
    C229     C        0.82300    0.48180    0.25360    1.000
    C230     C        0.83410    0.43410    0.22920    1.000
    H179     H        0.83480    0.43190    0.19180    1.000
    C231     C        0.84410    0.38950    0.25930    1.000
    H180     H        0.85170    0.35690    0.24260    1.000
    C232     C        0.84310    0.39270    0.31400    1.000
    C233     C        0.83200    0.44040    0.33840    1.000
    H181     H        0.83130    0.44260    0.37580    1.000
    C234     C        0.82200    0.48500    0.30820    1.000
    H182     H        0.81450    0.51760    0.32490    1.000
    N59      N        0.80200    0.61070    0.19820    1.000
    N60      N        0.81590    0.52700    0.22290    1.000
    C235     C        0.31100    0.92340    0.76210    1.000
    H183     H        0.31360    0.91260    0.72630    1.000
    C236     C        0.30400    0.92430    0.84260    1.000
    H184     H        0.29900    0.91420    0.87830    1.000
    C237     C        0.31340    0.97230    0.82850    1.000
    H185     H        0.31760    0.00160    0.85130    1.000
    C238     C        0.32300    0.01820    0.74640    1.000
    C239     C        0.33410    0.06590    0.77080    1.000
    H186     H        0.33480    0.06810    0.80820    1.000
    C240     C        0.34410    0.11050    0.74070    1.000
    H187     H        0.35170    0.14310    0.75740    1.000
    C241     C        0.34310    0.10730    0.68600    1.000
    C242     C        0.33200    0.05960    0.66160    1.000
    H188     H        0.33130    0.05740    0.62420    1.000
    C243     C        0.32200    0.01500    0.69180    1.000
    H189     H        0.31450    0.98240    0.67510    1.000
    N61      N        0.30200    0.88930    0.80180    1.000
    N62      N        0.31590    0.97300    0.77710    1.000
    C244     C        0.18900    0.07660    0.26210    1.000
    H190     H        0.18640    0.08740    0.22630    1.000
    C245     C        0.19600    0.07570    0.34260    1.000
    H191     H        0.20100    0.08580    0.37830    1.000
    C246     C        0.18660    0.02770    0.32850    1.000
    H192     H        0.18240    0.99840    0.35130    1.000
    C247     C        0.17700    0.98180    0.24640    1.000
    C248     C        0.16590    0.93410    0.27080    1.000
    H193     H        0.16520    0.93190    0.30820    1.000
    C249     C        0.15590    0.88950    0.24070    1.000
    H194     H        0.14830    0.85690    0.25740    1.000
    C250     C        0.15690    0.89270    0.18600    1.000
    C251     C        0.16800    0.94040    0.16160    1.000
    H195     H        0.16870    0.94260    0.12420    1.000
    C252     C        0.17800    0.98500    0.19180    1.000
    H196     H        0.18550    0.01760    0.17510    1.000
    N63      N        0.19800    0.11070    0.30180    1.000
    N64      N        0.18410    0.02700    0.27710    1.000
    C253     C        0.23790    0.18900    0.42340    1.000
    H197     H        0.27370    0.18640    0.41260    1.000
    C254     C        0.15740    0.19600    0.42430    1.000
    H198     H        0.12170    0.20100    0.41420    1.000
    C255     C        0.17150    0.18660    0.47230    1.000
    H199     H        0.14870    0.18240    0.50160    1.000
    C256     C        0.25360    0.17700    0.51820    1.000
    C257     C        0.22920    0.16590    0.56590    1.000
    H200     H        0.19180    0.16520    0.56810    1.000
    C258     C        0.25930    0.15590    0.61050    1.000
    H201     H        0.24260    0.14830    0.64310    1.000
    C259     C        0.31400    0.15690    0.60730    1.000
    C260     C        0.33840    0.16800    0.55960    1.000
    H202     H        0.37580    0.16870    0.55740    1.000
    C261     C        0.30820    0.17800    0.51500    1.000
    H203     H        0.32490    0.18550    0.48240    1.000
    N65      N        0.19820    0.19800    0.38930    1.000
    N66      N        0.22290    0.18410    0.47300    1.000
    C262     C        0.73790    0.31100    0.57660    1.000
    H204     H        0.77370    0.31360    0.58740    1.000
    C263     C        0.65740    0.30400    0.57570    1.000
    H205     H        0.62170    0.29900    0.58580    1.000
    C264     C        0.67150    0.31340    0.52770    1.000
    H206     H        0.64870    0.31760    0.49840    1.000
    C265     C        0.75360    0.32300    0.48180    1.000
    C266     C        0.72920    0.33410    0.43410    1.000
    H207     H        0.69180    0.33480    0.43190    1.000
    C267     C        0.75930    0.34410    0.38950    1.000
    H208     H        0.74260    0.35170    0.35690    1.000
    C268     C        0.81400    0.34310    0.39270    1.000
    C269     C        0.83840    0.33200    0.44040    1.000
    H209     H        0.87580    0.33130    0.44260    1.000
    C270     C        0.80820    0.32200    0.48500    1.000
    H210     H        0.82490    0.31450    0.51760    1.000
    N67      N        0.69820    0.30200    0.61070    1.000
    N68      N        0.72290    0.31590    0.52700    1.000
    C271     C        0.26210    0.81100    0.92340    1.000
    H211     H        0.22630    0.81360    0.91260    1.000
    C272     C        0.34260    0.80400    0.92430    1.000
    H212     H        0.37830    0.79900    0.91420    1.000
    C273     C        0.32850    0.81340    0.97230    1.000
    H213     H        0.35130    0.81760    0.00160    1.000
    C274     C        0.24640    0.82300    0.01820    1.000
    C275     C        0.27080    0.83410    0.06590    1.000
    H214     H        0.30820    0.83480    0.06810    1.000
    C276     C        0.24070    0.84410    0.11050    1.000
    H215     H        0.25740    0.85170    0.14310    1.000
    C277     C        0.18600    0.84310    0.10730    1.000
    C278     C        0.16160    0.83200    0.05960    1.000
    H216     H        0.12420    0.83130    0.05740    1.000
    C279     C        0.19180    0.82200    0.01500    1.000
    H217     H        0.17510    0.81450    0.98240    1.000
    N69      N        0.30180    0.80200    0.88930    1.000
    N70      N        0.27710    0.81590    0.97300    1.000
    C280     C        0.76210    0.68900    0.07660    1.000
    H218     H        0.72630    0.68640    0.08740    1.000
    C281     C        0.84260    0.69600    0.07570    1.000
    H219     H        0.87830    0.70100    0.08580    1.000
    C282     C        0.82850    0.68660    0.02770    1.000
    H220     H        0.85130    0.68240    0.99840    1.000
    C283     C        0.74640    0.67700    0.98180    1.000
    C284     C        0.77080    0.66590    0.93410    1.000
    H221     H        0.80820    0.66520    0.93190    1.000
    C285     C        0.74070    0.65590    0.88950    1.000
    H222     H        0.75740    0.64830    0.85690    1.000
    C286     C        0.68600    0.65690    0.89270    1.000
    C287     C        0.66160    0.66800    0.94040    1.000
    H223     H        0.62420    0.66870    0.94260    1.000
    C288     C        0.69180    0.67800    0.98500    1.000
    H224     H        0.67510    0.68550    0.01760    1.000
    N71      N        0.80180    0.69800    0.11070    1.000
    N72      N        0.77710    0.68410    0.02700    1.000
    C289     C        0.92340    0.73790    0.18900    1.000
    H225     H        0.91260    0.77370    0.18640    1.000
    C290     C        0.92430    0.65740    0.19600    1.000
    H226     H        0.91420    0.62170    0.20100    1.000
    C291     C        0.97230    0.67150    0.18660    1.000
    H227     H        0.00160    0.64870    0.18240    1.000
    C292     C        0.01820    0.75360    0.17700    1.000
    C293     C        0.06590    0.72920    0.16590    1.000
    H228     H        0.06810    0.69180    0.16520    1.000
    C294     C        0.11050    0.75930    0.15590    1.000
    H229     H        0.14310    0.74260    0.14830    1.000
    C295     C        0.10730    0.81400    0.15690    1.000
    C296     C        0.05960    0.83840    0.16800    1.000
    H230     H        0.05740    0.87580    0.16870    1.000
    C297     C        0.01500    0.80820    0.17800    1.000
    H231     H        0.98240    0.82490    0.18550    1.000
    N73      N        0.88930    0.69820    0.19800    1.000
    N74      N        0.97300    0.72290    0.18410    1.000
    C298     C        0.07660    0.23790    0.31100    1.000
    H232     H        0.08740    0.27370    0.31360    1.000
    C299     C        0.07570    0.15740    0.30400    1.000
    H233     H        0.08580    0.12170    0.29900    1.000
    C300     C        0.02770    0.17150    0.31340    1.000
    H234     H        0.99840    0.14870    0.31760    1.000
    C301     C        0.98180    0.25360    0.32300    1.000
    C302     C        0.93410    0.22920    0.33410    1.000
    H235     H        0.93190    0.19180    0.33480    1.000
    C303     C        0.88950    0.25930    0.34410    1.000
    H236     H        0.85690    0.24260    0.35170    1.000
    C304     C        0.89270    0.31400    0.34310    1.000
    C305     C        0.94040    0.33840    0.33200    1.000
    H237     H        0.94260    0.37580    0.33130    1.000
    C306     C        0.98500    0.30820    0.32200    1.000
    H238     H        0.01760    0.32490    0.31450    1.000
    N75      N        0.11070    0.19820    0.30200    1.000
    N76      N        0.02700    0.22290    0.31590    1.000
    C307     C        0.42340    0.76210    0.81100    1.000
    H239     H        0.41260    0.72630    0.81360    1.000
    C308     C        0.42430    0.84260    0.80400    1.000
    H240     H        0.41420    0.87830    0.79900    1.000
    C309     C        0.47230    0.82850    0.81340    1.000
    H241     H        0.50160    0.85130    0.81760    1.000
    C310     C        0.51820    0.74640    0.82300    1.000
    C311     C        0.56590    0.77080    0.83410    1.000
    H242     H        0.56810    0.80820    0.83480    1.000
    C312     C        0.61050    0.74070    0.84410    1.000
    H243     H        0.64310    0.75740    0.85170    1.000
    C313     C        0.60730    0.68600    0.84310    1.000
    C314     C        0.55960    0.66160    0.83200    1.000
    H244     H        0.55740    0.62420    0.83130    1.000
    C315     C        0.51500    0.69180    0.82200    1.000
    H245     H        0.48240    0.67510    0.81450    1.000
    N77      N        0.38930    0.80180    0.80200    1.000
    N78      N        0.47300    0.77710    0.81590    1.000
    C316     C        0.57660    0.26210    0.68900    1.000
    H246     H        0.58740    0.22630    0.68640    1.000
    C317     C        0.57570    0.34260    0.69600    1.000
    H247     H        0.58580    0.37830    0.70100    1.000
    C318     C        0.52770    0.32850    0.68660    1.000
    H248     H        0.49840    0.35130    0.68240    1.000
    C319     C        0.48180    0.24640    0.67700    1.000
    C320     C        0.43410    0.27080    0.66590    1.000
    H249     H        0.43190    0.30820    0.66520    1.000
    C321     C        0.38950    0.24070    0.65590    1.000
    H250     H        0.35690    0.25740    0.64830    1.000
    C322     C        0.39270    0.18600    0.65690    1.000
    C323     C        0.44040    0.16160    0.66800    1.000
    H251     H        0.44260    0.12420    0.66870    1.000
    C324     C        0.48500    0.19180    0.67800    1.000
    H252     H        0.51760    0.17510    0.68550    1.000
    N79      N        0.61070    0.30180    0.69800    1.000
    N80      N        0.52700    0.27710    0.68410    1.000
    Cd9      Cd       0.79989    0.70011    0.20011    1.000
    Cd10     Cd       0.20011    0.20011    0.29989    1.000
    Cd11     Cd       0.29989    0.79989    0.79989    1.000
    Cd12     Cd       0.70011    0.29989    0.70011    1.000
    N81      N        0.84470    0.34470    0.34470    1.000
    N82      N        0.15530    0.84470    0.15530    1.000
    N83      N        0.34470    0.15530    0.65530    1.000
    N84      N        0.65530    0.65530    0.84470    1.000
    C325     C        0.68900    0.92340    0.23790    1.000
    H253     H        0.68640    0.91260    0.27370    1.000
    C326     C        0.69600    0.92430    0.15740    1.000
    H254     H        0.70100    0.91420    0.12170    1.000
    C327     C        0.68660    0.97230    0.17150    1.000
    H255     H        0.68240    0.00160    0.14870    1.000
    C328     C        0.67700    0.01820    0.25360    1.000
    C329     C        0.66590    0.06590    0.22920    1.000
    H256     H        0.66520    0.06810    0.19180    1.000
    C330     C        0.65590    0.11050    0.25930    1.000
    H257     H        0.64830    0.14310    0.24260    1.000
    C331     C        0.65690    0.10730    0.31400    1.000
    C332     C        0.66800    0.05960    0.33840    1.000
    H258     H        0.66870    0.05740    0.37580    1.000
    C333     C        0.67800    0.01500    0.30820    1.000
    H259     H        0.68550    0.98240    0.32490    1.000
    N85      N        0.69800    0.88930    0.19820    1.000
    N86      N        0.68410    0.97300    0.22290    1.000
    C334     C        0.81100    0.07660    0.73790    1.000
    H260     H        0.81360    0.08740    0.77370    1.000
    C335     C        0.80400    0.07570    0.65740    1.000
    H261     H        0.79900    0.08580    0.62170    1.000
    C336     C        0.81340    0.02770    0.67150    1.000
    H262     H        0.81760    0.99840    0.64870    1.000
    C337     C        0.82300    0.98180    0.75360    1.000
    C338     C        0.83410    0.93410    0.72920    1.000
    H263     H        0.83480    0.93190    0.69180    1.000
    C339     C        0.84410    0.88950    0.75930    1.000
    H264     H        0.85170    0.85690    0.74260    1.000
    C340     C        0.84310    0.89270    0.81400    1.000
    C341     C        0.83200    0.94040    0.83840    1.000
    H265     H        0.83130    0.94260    0.87580    1.000
    C342     C        0.82200    0.98500    0.80820    1.000
    H266     H        0.81450    0.01760    0.82490    1.000
    N87      N        0.80200    0.11070    0.69820    1.000
    N88      N        0.81590    0.02700    0.72290    1.000
    C343     C        0.31100    0.42340    0.26210    1.000
    H267     H        0.31360    0.41260    0.22630    1.000
    C344     C        0.30400    0.42430    0.34260    1.000
    H268     H        0.29900    0.41420    0.37830    1.000
    C345     C        0.31340    0.47230    0.32850    1.000
    H269     H        0.31760    0.50160    0.35130    1.000
    C346     C        0.32300    0.51820    0.24640    1.000
    C347     C        0.33410    0.56590    0.27080    1.000
    H270     H        0.33480    0.56810    0.30820    1.000
    C348     C        0.34410    0.61050    0.24070    1.000
    H271     H        0.35170    0.64310    0.25740    1.000
    C349     C        0.34310    0.60730    0.18600    1.000
    C350     C        0.33200    0.55960    0.16160    1.000
    H272     H        0.33130    0.55740    0.12420    1.000
    C351     C        0.32200    0.51500    0.19180    1.000
    H273     H        0.31450    0.48240    0.17510    1.000
    N89      N        0.30200    0.38930    0.30180    1.000
    N90      N        0.31590    0.47300    0.27710    1.000
    C352     C        0.18900    0.57660    0.76210    1.000
    H274     H        0.18640    0.58740    0.72630    1.000
    C353     C        0.19600    0.57570    0.84260    1.000
    H275     H        0.20100    0.58580    0.87830    1.000
    C354     C        0.18660    0.52770    0.82850    1.000
    H276     H        0.18240    0.49840    0.85130    1.000
    C355     C        0.17700    0.48180    0.74640    1.000
    C356     C        0.16590    0.43410    0.77080    1.000
    H277     H        0.16520    0.43190    0.80820    1.000
    C357     C        0.15590    0.38950    0.74070    1.000
    H278     H        0.14830    0.35690    0.75740    1.000
    C358     C        0.15690    0.39270    0.68600    1.000
    C359     C        0.16800    0.44040    0.66160    1.000
    H279     H        0.16870    0.44260    0.62420    1.000
    C360     C        0.17800    0.48500    0.69180    1.000
    H280     H        0.18550    0.51760    0.67510    1.000
    N91      N        0.19800    0.61070    0.80180    1.000
    N92      N        0.18410    0.52700    0.77710    1.000
    C361     C        0.23790    0.68900    0.92340    1.000
    H281     H        0.27370    0.68640    0.91260    1.000
    C362     C        0.15740    0.69600    0.92430    1.000
    H282     H        0.12170    0.70100    0.91420    1.000
    C363     C        0.17150    0.68660    0.97230    1.000
    H283     H        0.14870    0.68240    0.00160    1.000
    C364     C        0.25360    0.67700    0.01820    1.000
    C365     C        0.22920    0.66590    0.06590    1.000
    H284     H        0.19180    0.66520    0.06810    1.000
    C366     C        0.25930    0.65590    0.11050    1.000
    H285     H        0.24260    0.64830    0.14310    1.000
    C367     C        0.31400    0.65690    0.10730    1.000
    C368     C        0.33840    0.66800    0.05960    1.000
    H286     H        0.37580    0.66870    0.05740    1.000
    C369     C        0.30820    0.67800    0.01500    1.000
    H287     H        0.32490    0.68550    0.98240    1.000
    N93      N        0.19820    0.69800    0.88930    1.000
    N94      N        0.22290    0.68410    0.97300    1.000
    C370     C        0.73790    0.81100    0.07660    1.000
    H288     H        0.77370    0.81360    0.08740    1.000
    C371     C        0.65740    0.80400    0.07570    1.000
    H289     H        0.62170    0.79900    0.08580    1.000
    C372     C        0.67150    0.81340    0.02770    1.000
    H290     H        0.64870    0.81760    0.99840    1.000
    C373     C        0.75360    0.82300    0.98180    1.000
    C374     C        0.72920    0.83410    0.93410    1.000
    H291     H        0.69180    0.83480    0.93190    1.000
    C375     C        0.75930    0.84410    0.88950    1.000
    H292     H        0.74260    0.85170    0.85690    1.000
    C376     C        0.81400    0.84310    0.89270    1.000
    C377     C        0.83840    0.83200    0.94040    1.000
    H293     H        0.87580    0.83130    0.94260    1.000
    C378     C        0.80820    0.82200    0.98500    1.000
    H294     H        0.82490    0.81450    0.01760    1.000
    N95      N        0.69820    0.80200    0.11070    1.000
    N96      N        0.72290    0.81590    0.02700    1.000
    C379     C        0.26210    0.31100    0.42340    1.000
    H295     H        0.22630    0.31360    0.41260    1.000
    C380     C        0.34260    0.30400    0.42430    1.000
    H296     H        0.37830    0.29900    0.41420    1.000
    C381     C        0.32850    0.31340    0.47230    1.000
    H297     H        0.35130    0.31760    0.50160    1.000
    C382     C        0.24640    0.32300    0.51820    1.000
    C383     C        0.27080    0.33410    0.56590    1.000
    H298     H        0.30820    0.33480    0.56810    1.000
    C384     C        0.24070    0.34410    0.61050    1.000
    H299     H        0.25740    0.35170    0.64310    1.000
    C385     C        0.18600    0.34310    0.60730    1.000
    C386     C        0.16160    0.33200    0.55960    1.000
    H300     H        0.12420    0.33130    0.55740    1.000
    C387     C        0.19180    0.32200    0.51500    1.000
    H301     H        0.17510    0.31450    0.48240    1.000
    N97      N        0.30180    0.30200    0.38930    1.000
    N98      N        0.27710    0.31590    0.47300    1.000
    C388     C        0.76210    0.18900    0.57660    1.000
    H302     H        0.72630    0.18640    0.58740    1.000
    C389     C        0.84260    0.19600    0.57570    1.000
    H303     H        0.87830    0.20100    0.58580    1.000
    C390     C        0.82850    0.18660    0.52770    1.000
    H304     H        0.85130    0.18240    0.49840    1.000
    C391     C        0.74640    0.17700    0.48180    1.000
    C392     C        0.77080    0.16590    0.43410    1.000
    H305     H        0.80820    0.16520    0.43190    1.000
    C393     C        0.74070    0.15590    0.38950    1.000
    H306     H        0.75740    0.14830    0.35690    1.000
    C394     C        0.68600    0.15690    0.39270    1.000
    C395     C        0.66160    0.16800    0.44040    1.000
    H307     H        0.62420    0.16870    0.44260    1.000
    C396     C        0.69180    0.17800    0.48500    1.000
    H308     H        0.67510    0.18550    0.51760    1.000
    N99      N        0.80180    0.19800    0.61070    1.000
    N100     N        0.77710    0.18410    0.52700    1.000
    C397     C        0.92340    0.23790    0.68900    1.000
    H309     H        0.91260    0.27370    0.68640    1.000
    C398     C        0.92430    0.15740    0.69600    1.000
    H310     H        0.91420    0.12170    0.70100    1.000
    C399     C        0.97230    0.17150    0.68660    1.000
    H311     H        0.00160    0.14870    0.68240    1.000
    C400     C        0.01820    0.25360    0.67700    1.000
    C401     C        0.06590    0.22920    0.66590    1.000
    H312     H        0.06810    0.19180    0.66520    1.000
    C402     C        0.11050    0.25930    0.65590    1.000
    H313     H        0.14310    0.24260    0.64830    1.000
    C403     C        0.10730    0.31400    0.65690    1.000
    C404     C        0.05960    0.33840    0.66800    1.000
    H314     H        0.05740    0.37580    0.66870    1.000
    C405     C        0.01500    0.30820    0.67800    1.000
    H315     H        0.98240    0.32490    0.68550    1.000
    N101     N        0.88930    0.19820    0.69800    1.000
    N102     N        0.97300    0.22290    0.68410    1.000
    C406     C        0.07660    0.73790    0.81100    1.000
    H316     H        0.08740    0.77370    0.81360    1.000
    C407     C        0.07570    0.65740    0.80400    1.000
    H317     H        0.08580    0.62170    0.79900    1.000
    C408     C        0.02770    0.67150    0.81340    1.000
    H318     H        0.99840    0.64870    0.81760    1.000
    C409     C        0.98180    0.75360    0.82300    1.000
    C410     C        0.93410    0.72920    0.83410    1.000
    H319     H        0.93190    0.69180    0.83480    1.000
    C411     C        0.88950    0.75930    0.84410    1.000
    H320     H        0.85690    0.74260    0.85170    1.000
    C412     C        0.89270    0.81400    0.84310    1.000
    C413     C        0.94040    0.83840    0.83200    1.000
    H321     H        0.94260    0.87580    0.83130    1.000
    C414     C        0.98500    0.80820    0.82200    1.000
    H322     H        0.01760    0.82490    0.81450    1.000
    N103     N        0.11070    0.69820    0.80200    1.000
    N104     N        0.02700    0.72290    0.81590    1.000
    C415     C        0.42340    0.26210    0.31100    1.000
    H323     H        0.41260    0.22630    0.31360    1.000
    C416     C        0.42430    0.34260    0.30400    1.000
    H324     H        0.41420    0.37830    0.29900    1.000
    C417     C        0.47230    0.32850    0.31340    1.000
    H325     H        0.50160    0.35130    0.31760    1.000
    C418     C        0.51820    0.24640    0.32300    1.000
    C419     C        0.56590    0.27080    0.33410    1.000
    H326     H        0.56810    0.30820    0.33480    1.000
    C420     C        0.61050    0.24070    0.34410    1.000
    H327     H        0.64310    0.25740    0.35170    1.000
    C421     C        0.60730    0.18600    0.34310    1.000
    C422     C        0.55960    0.16160    0.33200    1.000
    H328     H        0.55740    0.12420    0.33130    1.000
    C423     C        0.51500    0.19180    0.32200    1.000
    H329     H        0.48240    0.17510    0.31450    1.000
    N105     N        0.38930    0.30180    0.30200    1.000
    N106     N        0.47300    0.27710    0.31590    1.000
    C424     C        0.57660    0.76210    0.18900    1.000
    H330     H        0.58740    0.72630    0.18640    1.000
    C425     C        0.57570    0.84260    0.19600    1.000
    H331     H        0.58580    0.87830    0.20100    1.000
    C426     C        0.52770    0.82850    0.18660    1.000
    H332     H        0.49840    0.85130    0.18240    1.000
    C427     C        0.48180    0.74640    0.17700    1.000
    C428     C        0.43410    0.77080    0.16590    1.000
    H333     H        0.43190    0.80820    0.16520    1.000
    C429     C        0.38950    0.74070    0.15590    1.000
    H334     H        0.35690    0.75740    0.14830    1.000
    C430     C        0.39270    0.68600    0.15690    1.000
    C431     C        0.44040    0.66160    0.16800    1.000
    H335     H        0.44260    0.62420    0.16870    1.000
    C432     C        0.48500    0.69180    0.17800    1.000
    H336     H        0.51760    0.67510    0.18550    1.000
    N107     N        0.61070    0.80180    0.19800    1.000
    N108     N        0.52700    0.77710    0.18410    1.000
    Cd13     Cd       0.29989    0.29989    0.29989    1.000
    Cd14     Cd       0.20011    0.70011    0.79989    1.000
    Cd15     Cd       0.79989    0.20011    0.70011    1.000
    Cd16     Cd       0.70011    0.79989    0.20011    1.000
    N109     N        0.84470    0.84470    0.84470    1.000
    N110     N        0.15530    0.34470    0.65530    1.000
    N111     N        0.65530    0.15530    0.34470    1.000
    N112     N        0.34470    0.65530    0.15530    1.000
