# CIF file generated by openbabel 3.1.0, see https://openbabel.org
data_I
_chemical_name_common 'image0'
_cell_length_a 25.117
_cell_length_b 5.7802
_cell_length_c 21.993
_cell_angle_alpha 90
_cell_angle_beta 120.744
_cell_angle_gamma 90
_space_group_name_H-M_alt 'P 1'
_space_group_name_Hall 'P 1'
loop_
    _symmetry_equiv_pos_as_xyz
    x,y,z
loop_
    _atom_site_label
    _atom_site_type_symbol
    _atom_site_fract_x
    _atom_site_fract_y
    _atom_site_fract_z
    _atom_site_occupancy
    C1       C        0.52590    0.37600    0.38410    1.000
    H1       H        0.54630    0.51650    0.39970    1.000
    C2       C        0.52400    0.26800    0.32850    1.000
    H2       H        0.54620    0.32900    0.30890    1.000
    C3       C        0.48870    0.06280    0.29930    1.000
    C4       C        0.46090    0.97500    0.33330    1.000
    H3       H        0.43840    0.83810    0.31690    1.000
    C5       C        0.46530    0.08200    0.39100    1.000
    H4       H        0.44490    0.01670    0.41210    1.000
    C6       C        0.48480    0.95600    0.23470    1.000
    H5       H        0.49480    0.79300    0.24290    1.000
    H6       H        0.51480    0.02970    0.22560    1.000
    C7       C        0.41460    0.88280    0.10560    1.000
    H7       H        0.43300    0.72790    0.11660    1.000
    C8       C        0.44850    0.03360    0.07890    1.000
    C9       C        0.34590    0.86500    0.04790    1.000
    H8       H        0.32540    0.78550    0.06980    1.000
    C10      C        0.33660    0.71200    0.98710    1.000
    H9       H        0.33850    0.80470    0.95200    1.000
    H10      H        0.29690    0.63770    0.96640    1.000
    H11      H        0.36860    0.59640    0.00440    1.000
    C11      C        0.31270    0.09700    0.02110    1.000
    H12      H        0.33060    0.18010    0.99820    1.000
    H13      H        0.31710    0.18550    0.06030    1.000
    H14      H        0.26950    0.06990    0.98800    1.000
    C12      C        0.12920    0.85000    0.10950    1.000
    H15      H        0.11700    0.97750    0.07940    1.000
    C13      C        0.18870    0.85100    0.16870    1.000
    H16      H        0.21430    0.97880    0.17850    1.000
    C14      C        0.20970    0.66000    0.21280    1.000
    C15      C        0.16850    0.48100    0.19500    1.000
    H17      H        0.18040    0.34910    0.22310    1.000
    C16      C        0.11010    0.49300    0.13650    1.000
    H18      H        0.08390    0.36700    0.12600    1.000
    C17      C        0.27180    0.66300    0.27720    1.000
    H19      H        0.29390    0.80110    0.27750    1.000
    H20      H        0.29530    0.52940    0.27740    1.000
    C18      C        0.32390    0.74890    0.40700    1.000
    H21      H        0.33530    0.89750    0.39530    1.000
    C19      C        0.37710    0.57850    0.42820    1.000
    C20      C        0.31030    0.78710    0.46600    1.000
    H22      H        0.27070    0.87050    0.44430    1.000
    C21      C        0.35760    0.94800    0.52370    1.000
    H23      H        0.33920    0.02070    0.54770    1.000
    H24      H        0.37040    0.06380    0.50260    1.000
    H25      H        0.39300    0.85920    0.55700    1.000
    C22      C        0.29990    0.56500    0.49620    1.000
    H26      H        0.33600    0.46860    0.51410    1.000
    H27      H        0.26470    0.48420    0.45950    1.000
    H28      H        0.29260    0.60270    0.53380    1.000
    N1       N        0.49740    0.27780    0.41860    1.000
    N2       N        0.42000    0.98650    0.17070    1.000
    H29      H        0.39240    0.91910    0.17940    1.000
    H30      H        0.41100    0.13830    0.16330    1.000
    N3       N        0.08880    0.68000    0.09350    1.000
    N4       N        0.26630    0.65950    0.34220    1.000
    H31      H        0.25900    0.51360    0.35030    1.000
    H32      H        0.23370    0.74680    0.33440    1.000
    O1       O        0.43070    0.67480    0.46840    1.000
    O2       O        0.36690    0.37700    0.41000    1.000
    O3       O        0.46600    0.92540    0.04170    1.000
    O4       O        0.45710    0.24410    0.09360    1.000
    C23      C        0.02590    0.87600    0.38410    1.000
    H33      H        0.04630    0.01650    0.39970    1.000
    C24      C        0.02400    0.76800    0.32850    1.000
    H34      H        0.04620    0.82900    0.30890    1.000
    C25      C        0.98870    0.56280    0.29930    1.000
    C26      C        0.96090    0.47500    0.33330    1.000
    H35      H        0.93840    0.33810    0.31690    1.000
    C27      C        0.96530    0.58200    0.39100    1.000
    H36      H        0.94490    0.51670    0.41210    1.000
    C28      C        0.98480    0.45600    0.23470    1.000
    H37      H        0.99480    0.29300    0.24290    1.000
    H38      H        0.01480    0.52970    0.22560    1.000
    C29      C        0.91460    0.38280    0.10560    1.000
    H39      H        0.93300    0.22790    0.11660    1.000
    C30      C        0.94850    0.53360    0.07890    1.000
    C31      C        0.84590    0.36500    0.04790    1.000
    H40      H        0.82540    0.28550    0.06980    1.000
    C32      C        0.83660    0.21200    0.98710    1.000
    H41      H        0.83850    0.30470    0.95200    1.000
    H42      H        0.79690    0.13770    0.96640    1.000
    H43      H        0.86860    0.09640    0.00440    1.000
    C33      C        0.81270    0.59700    0.02110    1.000
    H44      H        0.83060    0.68010    0.99820    1.000
    H45      H        0.81710    0.68550    0.06030    1.000
    H46      H        0.76950    0.56990    0.98800    1.000
    C34      C        0.62920    0.35000    0.10950    1.000
    H47      H        0.61700    0.47750    0.07940    1.000
    C35      C        0.68870    0.35100    0.16870    1.000
    H48      H        0.71430    0.47880    0.17850    1.000
    C36      C        0.70970    0.16000    0.21280    1.000
    C37      C        0.66850    0.98100    0.19500    1.000
    H49      H        0.68040    0.84910    0.22310    1.000
    C38      C        0.61010    0.99300    0.13650    1.000
    H50      H        0.58390    0.86700    0.12600    1.000
    C39      C        0.77180    0.16300    0.27720    1.000
    H51      H        0.79390    0.30110    0.27750    1.000
    H52      H        0.79530    0.02940    0.27740    1.000
    C40      C        0.82390    0.24890    0.40700    1.000
    H53      H        0.83530    0.39750    0.39530    1.000
    C41      C        0.87710    0.07850    0.42820    1.000
    C42      C        0.81030    0.28710    0.46600    1.000
    H54      H        0.77070    0.37050    0.44430    1.000
    C43      C        0.85760    0.44800    0.52370    1.000
    H55      H        0.83920    0.52070    0.54770    1.000
    H56      H        0.87040    0.56380    0.50260    1.000
    H57      H        0.89300    0.35920    0.55700    1.000
    C44      C        0.79990    0.06500    0.49620    1.000
    H58      H        0.83600    0.96860    0.51410    1.000
    H59      H        0.76470    0.98420    0.45950    1.000
    H60      H        0.79260    0.10270    0.53380    1.000
    N5       N        0.99740    0.77780    0.41860    1.000
    N6       N        0.92000    0.48650    0.17070    1.000
    H61      H        0.89240    0.41910    0.17940    1.000
    H62      H        0.91100    0.63830    0.16330    1.000
    N7       N        0.58880    0.18000    0.09350    1.000
    N8       N        0.76630    0.15950    0.34220    1.000
    H63      H        0.75900    0.01360    0.35030    1.000
    H64      H        0.73370    0.24680    0.33440    1.000
    O5       O        0.93070    0.17480    0.46840    1.000
    O6       O        0.86690    0.87700    0.41000    1.000
    O7       O        0.96600    0.42540    0.04170    1.000
    O8       O        0.95710    0.74410    0.09360    1.000
    C45      C        0.47410    0.37600    0.61590    1.000
    H65      H        0.45370    0.51650    0.60030    1.000
    C46      C        0.47600    0.26800    0.67150    1.000
    H66      H        0.45380    0.32900    0.69110    1.000
    C47      C        0.51130    0.06280    0.70070    1.000
    C48      C        0.53910    0.97500    0.66670    1.000
    H67      H        0.56160    0.83810    0.68310    1.000
    C49      C        0.53470    0.08200    0.60900    1.000
    H68      H        0.55510    0.01670    0.58790    1.000
    C50      C        0.51520    0.95600    0.76530    1.000
    H69      H        0.50520    0.79300    0.75710    1.000
    H70      H        0.48520    0.02970    0.77440    1.000
    C51      C        0.58540    0.88280    0.89440    1.000
    H71      H        0.56700    0.72790    0.88340    1.000
    C52      C        0.55150    0.03360    0.92110    1.000
    C53      C        0.65410    0.86500    0.95210    1.000
    H72      H        0.67460    0.78550    0.93020    1.000
    C54      C        0.66340    0.71200    0.01290    1.000
    H73      H        0.66150    0.80470    0.04800    1.000
    H74      H        0.70310    0.63770    0.03360    1.000
    H75      H        0.63140    0.59640    0.99560    1.000
    C55      C        0.68730    0.09700    0.97890    1.000
    H76      H        0.66940    0.18010    0.00180    1.000
    H77      H        0.68290    0.18550    0.93970    1.000
    H78      H        0.73050    0.06990    0.01200    1.000
    C56      C        0.87080    0.85000    0.89050    1.000
    H79      H        0.88300    0.97750    0.92060    1.000
    C57      C        0.81130    0.85100    0.83130    1.000
    H80      H        0.78570    0.97880    0.82150    1.000
    C58      C        0.79030    0.66000    0.78720    1.000
    C59      C        0.83150    0.48100    0.80500    1.000
    H81      H        0.81960    0.34910    0.77690    1.000
    C60      C        0.88990    0.49300    0.86350    1.000
    H82      H        0.91610    0.36700    0.87400    1.000
    C61      C        0.72820    0.66300    0.72280    1.000
    H83      H        0.70610    0.80110    0.72250    1.000
    H84      H        0.70470    0.52940    0.72260    1.000
    C62      C        0.67610    0.74890    0.59300    1.000
    H85      H        0.66470    0.89750    0.60470    1.000
    C63      C        0.62290    0.57850    0.57180    1.000
    C64      C        0.68970    0.78710    0.53400    1.000
    H86      H        0.72930    0.87050    0.55570    1.000
    C65      C        0.64240    0.94800    0.47630    1.000
    H87      H        0.66080    0.02070    0.45230    1.000
    H88      H        0.62960    0.06380    0.49740    1.000
    H89      H        0.60700    0.85920    0.44300    1.000
    C66      C        0.70010    0.56500    0.50380    1.000
    H90      H        0.66400    0.46860    0.48590    1.000
    H91      H        0.73530    0.48420    0.54050    1.000
    H92      H        0.70740    0.60270    0.46620    1.000
    N9       N        0.50260    0.27780    0.58140    1.000
    N10      N        0.58000    0.98650    0.82930    1.000
    H93      H        0.60760    0.91910    0.82060    1.000
    H94      H        0.58900    0.13830    0.83670    1.000
    N11      N        0.91120    0.68000    0.90650    1.000
    N12      N        0.73370    0.65950    0.65780    1.000
    H95      H        0.74100    0.51360    0.64970    1.000
    H96      H        0.76630    0.74680    0.66560    1.000
    O9       O        0.56930    0.67480    0.53160    1.000
    O10      O        0.63310    0.37700    0.59000    1.000
    O11      O        0.53400    0.92540    0.95830    1.000
    O12      O        0.54290    0.24410    0.90640    1.000
    C67      C        0.97410    0.87600    0.61590    1.000
    H97      H        0.95370    0.01650    0.60030    1.000
    C68      C        0.97600    0.76800    0.67150    1.000
    H98      H        0.95380    0.82900    0.69110    1.000
    C69      C        0.01130    0.56280    0.70070    1.000
    C70      C        0.03910    0.47500    0.66670    1.000
    H99      H        0.06160    0.33810    0.68310    1.000
    C71      C        0.03470    0.58200    0.60900    1.000
    H100     H        0.05510    0.51670    0.58790    1.000
    C72      C        0.01520    0.45600    0.76530    1.000
    H101     H        0.00520    0.29300    0.75710    1.000
    H102     H        0.98520    0.52970    0.77440    1.000
    C73      C        0.08540    0.38280    0.89440    1.000
    H103     H        0.06700    0.22790    0.88340    1.000
    C74      C        0.05150    0.53360    0.92110    1.000
    C75      C        0.15410    0.36500    0.95210    1.000
    H104     H        0.17460    0.28550    0.93020    1.000
    C76      C        0.16340    0.21200    0.01290    1.000
    H105     H        0.16150    0.30470    0.04800    1.000
    H106     H        0.20310    0.13770    0.03360    1.000
    H107     H        0.13140    0.09640    0.99560    1.000
    C77      C        0.18730    0.59700    0.97890    1.000
    H108     H        0.16940    0.68010    0.00180    1.000
    H109     H        0.18290    0.68550    0.93970    1.000
    H110     H        0.23050    0.56990    0.01200    1.000
    C78      C        0.37080    0.35000    0.89050    1.000
    H111     H        0.38300    0.47750    0.92060    1.000
    C79      C        0.31130    0.35100    0.83130    1.000
    H112     H        0.28570    0.47880    0.82150    1.000
    C80      C        0.29030    0.16000    0.78720    1.000
    C81      C        0.33150    0.98100    0.80500    1.000
    H113     H        0.31960    0.84910    0.77690    1.000
    C82      C        0.38990    0.99300    0.86350    1.000
    H114     H        0.41610    0.86700    0.87400    1.000
    C83      C        0.22820    0.16300    0.72280    1.000
    H115     H        0.20610    0.30110    0.72250    1.000
    H116     H        0.20470    0.02940    0.72260    1.000
    C84      C        0.17610    0.24890    0.59300    1.000
    H117     H        0.16470    0.39750    0.60470    1.000
    C85      C        0.12290    0.07850    0.57180    1.000
    C86      C        0.18970    0.28710    0.53400    1.000
    H118     H        0.22930    0.37050    0.55570    1.000
    C87      C        0.14240    0.44800    0.47630    1.000
    H119     H        0.16080    0.52070    0.45230    1.000
    H120     H        0.12960    0.56380    0.49740    1.000
    H121     H        0.10700    0.35920    0.44300    1.000
    C88      C        0.20010    0.06500    0.50380    1.000
    H122     H        0.16400    0.96860    0.48590    1.000
    H123     H        0.23530    0.98420    0.54050    1.000
    H124     H        0.20740    0.10270    0.46620    1.000
    N13      N        0.00260    0.77780    0.58140    1.000
    N14      N        0.08000    0.48650    0.82930    1.000
    H125     H        0.10760    0.41910    0.82060    1.000
    H126     H        0.08900    0.63830    0.83670    1.000
    N15      N        0.41120    0.18000    0.90650    1.000
    N16      N        0.23370    0.15950    0.65780    1.000
    H127     H        0.24100    0.01360    0.64970    1.000
    H128     H        0.26630    0.24680    0.66560    1.000
    O13      O        0.06930    0.17480    0.53160    1.000
    O14      O        0.13310    0.87700    0.59000    1.000
    O15      O        0.03400    0.42540    0.95830    1.000
    O16      O        0.04290    0.74410    0.90640    1.000
    Zn1      Zn       0.50000    0.16900    0.00000    1.000
    Zn2      Zn       0.00000    0.66900    0.00000    1.000
    Zn3      Zn       0.50000    0.45090    0.50000    1.000
    Zn4      Zn       0.00000    0.95090    0.50000    1.000
