# CIF file generated by openbabel 3.1.0, see https://openbabel.org
data_I
_chemical_name_common 'image0'
_cell_length_a 15.169
_cell_length_b 16.019
_cell_length_c 8.866
_cell_angle_alpha 90
_cell_angle_beta 95.73
_cell_angle_gamma 90
_space_group_name_H-M_alt 'P 1'
_space_group_name_Hall 'P 1'
loop_
    _symmetry_equiv_pos_as_xyz
    x,y,z
loop_
    _atom_site_label
    _atom_site_type_symbol
    _atom_site_fract_x
    _atom_site_fract_y
    _atom_site_fract_z
    _atom_site_occupancy
    Cd1      Cd       0.62969    0.32092    0.04285    1.000
    Cd2      Cd       0.26645    0.35213    0.06772    1.000
    N1       N        0.41060    0.30750    0.06470    1.000
    N2       N        0.21830    0.28000    0.85390    1.000
    N3       N        0.71080    0.23820    0.73740    1.000
    N4       N        0.69220    0.52100    0.04070    1.000
    C1       C        0.48450    0.30770    0.05370    1.000
    C2       C        0.19160    0.24420    0.74800    1.000
    C3       C        0.67990    0.26720    0.83500    1.000
    C4       C        0.67120    0.45390    0.04790    1.000
    Cd3      Cd       0.87031    0.82092    0.45715    1.000
    Cd4      Cd       0.23355    0.85213    0.43228    1.000
    N5       N        0.08940    0.80750    0.43530    1.000
    N6       N        0.28170    0.78000    0.64610    1.000
    N7       N        0.78920    0.73820    0.76260    1.000
    N8       N        0.80780    0.02100    0.45930    1.000
    C5       C        0.01550    0.80770    0.44630    1.000
    C6       C        0.30840    0.74420    0.75200    1.000
    C7       C        0.82010    0.76720    0.66500    1.000
    C8       C        0.82880    0.95390    0.45210    1.000
    Cd5      Cd       0.37031    0.67908    0.95715    1.000
    Cd6      Cd       0.73355    0.64787    0.93228    1.000
    N9       N        0.58940    0.69250    0.93530    1.000
    N10      N        0.78170    0.72000    0.14610    1.000
    N11      N        0.28920    0.76180    0.26260    1.000
    N12      N        0.30780    0.47900    0.95930    1.000
    C9       C        0.51550    0.69230    0.94630    1.000
    C10      C        0.80840    0.75580    0.25200    1.000
    C11      C        0.32010    0.73280    0.16500    1.000
    C12      C        0.32880    0.54610    0.95210    1.000
    Cd7      Cd       0.12969    0.17908    0.54285    1.000
    Cd8      Cd       0.76645    0.14787    0.56772    1.000
    N13      N        0.91060    0.19250    0.56470    1.000
    N14      N        0.71830    0.22000    0.35390    1.000
    N15      N        0.21080    0.26180    0.23740    1.000
    N16      N        0.19220    0.97900    0.54070    1.000
    C13      C        0.98450    0.19230    0.55370    1.000
    C14      C        0.69160    0.25580    0.24800    1.000
    C15      C        0.17990    0.23280    0.33500    1.000
    C16      C        0.17120    0.04610    0.54790    1.000
