# CIF file generated by openbabel 3.1.0, see https://openbabel.org
data_I
_chemical_name_common 'image0'
_cell_length_a 16.1461
_cell_length_b 16.1461
_cell_length_c 17.4126
_cell_angle_alpha 90
_cell_angle_beta 90
_cell_angle_gamma 90
_space_group_name_H-M_alt 'P 1'
_space_group_name_Hall 'P 1'
loop_
    _symmetry_equiv_pos_as_xyz
    x,y,z
loop_
    _atom_site_label
    _atom_site_type_symbol
    _atom_site_fract_x
    _atom_site_fract_y
    _atom_site_fract_z
    _atom_site_occupancy
    Mn1      Mn       0.23852    0.77729    0.21396    1.000
    N1       N        0.22380    0.78490    0.33995    1.000
    N2       N        0.11870    0.70639    0.20680    1.000
    N3       N        0.17070    0.89584    0.20470    1.000
    N4       N        0.86046    0.65640    0.27530    1.000
    N5       N        0.19397    0.15797    0.27015    1.000
    N6       N        0.26450    0.75440    0.58899    1.000
    C1       C        0.15010    0.96170    0.21980    1.000
    C2       C        0.16210    0.09750    0.25350    1.000
    N7       N        0.17630    0.77460    0.47460    1.000
    C3       C        0.20450    0.77710    0.40480    1.000
    C4       C        0.22420    0.76340    0.53350    1.000
    N8       N        0.99320    0.62000    0.21740    1.000
    C5       C        0.05750    0.66860    0.21510    1.000
    C6       C        0.92480    0.64340    0.25030    1.000
    N9       N        0.11730    0.03300    0.23390    1.000
    N10      N        0.19170    0.80790    0.47600    1.000
    C7       C        0.21490    0.79540    0.40550    1.000
    C8       C        0.28090    0.73560    0.03340    1.000
    N11      N        0.18310    0.73520    0.46970    1.000
    C9       C        0.20700    0.75480    0.40080    1.000
    C10      C        0.24670    0.72960    0.02970    1.000
    N12      N        0.22620    0.83330    0.47480    1.000
    C11      C        0.23100    0.80790    0.40420    1.000
    C12      C        0.28820    0.75600    0.03010    1.000
    N13      N        0.48460    0.86590    0.30570    1.000
    C13      C        0.05390    0.67410    0.20230    1.000
    C14      C        0.42250    0.85310    0.25980    1.000
    N14      N        0.50430    0.88340    0.25060    1.000
    C15      C        0.06380    0.66740    0.23180    1.000
    C16      C        0.42980    0.85590    0.23840    1.000
    Mn2      Mn       0.76148    0.22271    0.21396    1.000
    N15      N        0.77620    0.21510    0.33995    1.000
    N16      N        0.88130    0.29361    0.20680    1.000
    N17      N        0.82930    0.10416    0.20470    1.000
    N18      N        0.13954    0.34360    0.27530    1.000
    N19      N        0.80603    0.84203    0.27015    1.000
    N20      N        0.73550    0.24560    0.58899    1.000
    C17      C        0.84990    0.03830    0.21980    1.000
    C18      C        0.83790    0.90250    0.25350    1.000
    N21      N        0.82370    0.22540    0.47460    1.000
    C19      C        0.79550    0.22290    0.40480    1.000
    C20      C        0.77580    0.23660    0.53350    1.000
    N22      N        0.00680    0.38000    0.21740    1.000
    C21      C        0.94250    0.33140    0.21510    1.000
    C22      C        0.07520    0.35660    0.25030    1.000
    N23      N        0.88270    0.96700    0.23390    1.000
    N24      N        0.80830    0.19210    0.47600    1.000
    C23      C        0.78510    0.20460    0.40550    1.000
    C24      C        0.71910    0.26440    0.03340    1.000
    N25      N        0.81690    0.26480    0.46970    1.000
    C25      C        0.79300    0.24520    0.40080    1.000
    C26      C        0.75330    0.27040    0.02970    1.000
    N26      N        0.77380    0.16670    0.47480    1.000
    C27      C        0.76900    0.19210    0.40420    1.000
    C28      C        0.71180    0.24400    0.03010    1.000
    N27      N        0.51540    0.13410    0.30570    1.000
    C29      C        0.94610    0.32590    0.20230    1.000
    C30      C        0.57750    0.14690    0.25980    1.000
    N28      N        0.49570    0.11660    0.25060    1.000
    C31      C        0.93620    0.33260    0.23180    1.000
    C32      C        0.57020    0.14410    0.23840    1.000
    Mn3      Mn       0.77729    0.76148    0.78604    1.000
    N29      N        0.78490    0.77620    0.66005    1.000
    N30      N        0.70639    0.88130    0.79320    1.000
    N31      N        0.89584    0.82930    0.79530    1.000
    N32      N        0.65640    0.13954    0.72470    1.000
    N33      N        0.15797    0.80603    0.72985    1.000
    N34      N        0.75440    0.73550    0.41101    1.000
    C33      C        0.96170    0.84990    0.78020    1.000
    C34      C        0.09750    0.83790    0.74650    1.000
    N35      N        0.77460    0.82370    0.52540    1.000
    C35      C        0.77710    0.79550    0.59520    1.000
    C36      C        0.76340    0.77580    0.46650    1.000
    N36      N        0.62000    0.00680    0.78260    1.000
    C37      C        0.66860    0.94250    0.78490    1.000
    C38      C        0.64340    0.07520    0.74970    1.000
    N37      N        0.03300    0.88270    0.76610    1.000
    N38      N        0.80790    0.80830    0.52400    1.000
    C39      C        0.79540    0.78510    0.59450    1.000
    C40      C        0.73560    0.71910    0.96660    1.000
    N39      N        0.73520    0.81690    0.53030    1.000
    C41      C        0.75480    0.79300    0.59920    1.000
    C42      C        0.72960    0.75330    0.97030    1.000
    N40      N        0.83330    0.77380    0.52520    1.000
    C43      C        0.80790    0.76900    0.59580    1.000
    C44      C        0.75600    0.71180    0.96990    1.000
    N41      N        0.86590    0.51540    0.69430    1.000
    C45      C        0.67410    0.94610    0.79770    1.000
    C46      C        0.85310    0.57750    0.74020    1.000
    N42      N        0.88340    0.49570    0.74940    1.000
    C47      C        0.66740    0.93620    0.76820    1.000
    C48      C        0.85590    0.57020    0.76160    1.000
    Mn4      Mn       0.22271    0.23852    0.78604    1.000
    N43      N        0.21510    0.22380    0.66005    1.000
    N44      N        0.29361    0.11870    0.79320    1.000
    N45      N        0.10416    0.17070    0.79530    1.000
    N46      N        0.34360    0.86046    0.72470    1.000
    N47      N        0.84203    0.19397    0.72985    1.000
    N48      N        0.24560    0.26450    0.41101    1.000
    C49      C        0.03830    0.15010    0.78020    1.000
    C50      C        0.90250    0.16210    0.74650    1.000
    N49      N        0.22540    0.17630    0.52540    1.000
    C51      C        0.22290    0.20450    0.59520    1.000
    C52      C        0.23660    0.22420    0.46650    1.000
    N50      N        0.38000    0.99320    0.78260    1.000
    C53      C        0.33140    0.05750    0.78490    1.000
    C54      C        0.35660    0.92480    0.74970    1.000
    N51      N        0.96700    0.11730    0.76610    1.000
    N52      N        0.19210    0.19170    0.52400    1.000
    C55      C        0.20460    0.21490    0.59450    1.000
    C56      C        0.26440    0.28090    0.96660    1.000
    N53      N        0.26480    0.18310    0.53030    1.000
    C57      C        0.24520    0.20700    0.59920    1.000
    C58      C        0.27040    0.24670    0.97030    1.000
    N54      N        0.16670    0.22620    0.52520    1.000
    C59      C        0.19210    0.23100    0.59580    1.000
    C60      C        0.24400    0.28820    0.96990    1.000
    N55      N        0.13410    0.48460    0.69430    1.000
    C61      C        0.32590    0.05390    0.79770    1.000
    C62      C        0.14690    0.42250    0.74020    1.000
    N56      N        0.11660    0.50430    0.74940    1.000
    C63      C        0.33260    0.06380    0.76820    1.000
    C64      C        0.14410    0.42980    0.76160    1.000
    Mn5      Mn       0.26148    0.27729    0.28604    1.000
    N57      N        0.27620    0.28490    0.16005    1.000
    N58      N        0.38130    0.20639    0.29320    1.000
    N59      N        0.32930    0.39584    0.29530    1.000
    N60      N        0.63954    0.15640    0.22470    1.000
    N61      N        0.30603    0.65797    0.22985    1.000
    N62      N        0.23550    0.25440    0.91101    1.000
    C65      C        0.34990    0.46170    0.28020    1.000
    C66      C        0.33790    0.59750    0.24650    1.000
    N63      N        0.32370    0.27460    0.02540    1.000
    C67      C        0.29550    0.27710    0.09520    1.000
    C68      C        0.27580    0.26340    0.96650    1.000
    N64      N        0.50680    0.12000    0.28260    1.000
    C69      C        0.44250    0.16860    0.28490    1.000
    C70      C        0.57520    0.14340    0.24970    1.000
    N65      N        0.38270    0.53300    0.26610    1.000
    N66      N        0.30830    0.30790    0.02400    1.000
    C71      C        0.28510    0.29540    0.09450    1.000
    C72      C        0.21910    0.23560    0.46660    1.000
    N67      N        0.31690    0.23520    0.03030    1.000
    C73      C        0.29300    0.25480    0.09920    1.000
    C74      C        0.25330    0.22960    0.47030    1.000
    N68      N        0.27380    0.33330    0.02520    1.000
    C75      C        0.26900    0.30790    0.09580    1.000
    C76      C        0.21180    0.25600    0.46990    1.000
    N69      N        0.01540    0.36590    0.19430    1.000
    C77      C        0.44610    0.17410    0.29770    1.000
    C78      C        0.07750    0.35310    0.24020    1.000
    N70      N        0.99570    0.38340    0.24940    1.000
    C79      C        0.43620    0.16740    0.26820    1.000
    C80      C        0.07020    0.35590    0.26160    1.000
    Mn6      Mn       0.73852    0.72271    0.28604    1.000
    N71      N        0.72380    0.71510    0.16005    1.000
    N72      N        0.61870    0.79361    0.29320    1.000
    N73      N        0.67070    0.60416    0.29530    1.000
    N74      N        0.36046    0.84360    0.22470    1.000
    N75      N        0.69397    0.34203    0.22985    1.000
    N76      N        0.76450    0.74560    0.91101    1.000
    C81      C        0.65010    0.53830    0.28020    1.000
    C82      C        0.66210    0.40250    0.24650    1.000
    N77      N        0.67630    0.72540    0.02540    1.000
    C83      C        0.70450    0.72290    0.09520    1.000
    C84      C        0.72420    0.73660    0.96650    1.000
    N78      N        0.49320    0.88000    0.28260    1.000
    C85      C        0.55750    0.83140    0.28490    1.000
    C86      C        0.42480    0.85660    0.24970    1.000
    N79      N        0.61730    0.46700    0.26610    1.000
    N80      N        0.69170    0.69210    0.02400    1.000
    C87      C        0.71490    0.70460    0.09450    1.000
    C88      C        0.78090    0.76440    0.46660    1.000
    N81      N        0.68310    0.76480    0.03030    1.000
    C89      C        0.70700    0.74520    0.09920    1.000
    C90      C        0.74670    0.77040    0.47030    1.000
    N82      N        0.72620    0.66670    0.02520    1.000
    C91      C        0.73100    0.69210    0.09580    1.000
    C92      C        0.78820    0.74400    0.46990    1.000
    N83      N        0.98460    0.63410    0.19430    1.000
    C93      C        0.55390    0.82590    0.29770    1.000
    C94      C        0.92250    0.64690    0.24020    1.000
    N84      N        0.00430    0.61660    0.24940    1.000
    C95      C        0.56380    0.83260    0.26820    1.000
    C96      C        0.92980    0.64410    0.26160    1.000
    Mn7      Mn       0.72271    0.26148    0.71396    1.000
    N85      N        0.71510    0.27620    0.83995    1.000
    N86      N        0.79361    0.38130    0.70680    1.000
    N87      N        0.60416    0.32930    0.70470    1.000
    N88      N        0.84360    0.63954    0.77530    1.000
    N89      N        0.34203    0.30603    0.77015    1.000
    N90      N        0.74560    0.23550    0.08899    1.000
    C97      C        0.53830    0.34990    0.71980    1.000
    C98      C        0.40250    0.33790    0.75350    1.000
    N91      N        0.72540    0.32370    0.97460    1.000
    C99      C        0.72290    0.29550    0.90480    1.000
    C100     C        0.73660    0.27580    0.03350    1.000
    N92      N        0.88000    0.50680    0.71740    1.000
    C101     C        0.83140    0.44250    0.71510    1.000
    C102     C        0.85660    0.57520    0.75030    1.000
    N93      N        0.46700    0.38270    0.73390    1.000
    N94      N        0.69210    0.30830    0.97600    1.000
    C103     C        0.70460    0.28510    0.90550    1.000
    C104     C        0.76440    0.21910    0.53340    1.000
    N95      N        0.76480    0.31690    0.96970    1.000
    C105     C        0.74520    0.29300    0.90080    1.000
    C106     C        0.77040    0.25330    0.52970    1.000
    N96      N        0.66670    0.27380    0.97480    1.000
    C107     C        0.69210    0.26900    0.90420    1.000
    C108     C        0.74400    0.21180    0.53010    1.000
    N97      N        0.63410    0.01540    0.80570    1.000
    C109     C        0.82590    0.44610    0.70230    1.000
    C110     C        0.64690    0.07750    0.75980    1.000
    N98      N        0.61660    0.99570    0.75060    1.000
    C111     C        0.83260    0.43620    0.73180    1.000
    C112     C        0.64410    0.07020    0.73840    1.000
    Mn8      Mn       0.27729    0.73852    0.71396    1.000
    N99      N        0.28490    0.72380    0.83995    1.000
    N100     N        0.20639    0.61870    0.70680    1.000
    N101     N        0.39584    0.67070    0.70470    1.000
    N102     N        0.15640    0.36046    0.77530    1.000
    N103     N        0.65797    0.69397    0.77015    1.000
    N104     N        0.25440    0.76450    0.08899    1.000
    C113     C        0.46170    0.65010    0.71980    1.000
    C114     C        0.59750    0.66210    0.75350    1.000
    N105     N        0.27460    0.67630    0.97460    1.000
    C115     C        0.27710    0.70450    0.90480    1.000
    C116     C        0.26340    0.72420    0.03350    1.000
    N106     N        0.12000    0.49320    0.71740    1.000
    C117     C        0.16860    0.55750    0.71510    1.000
    C118     C        0.14340    0.42480    0.75030    1.000
    N107     N        0.53300    0.61730    0.73390    1.000
    N108     N        0.30790    0.69170    0.97600    1.000
    C119     C        0.29540    0.71490    0.90550    1.000
    C120     C        0.23560    0.78090    0.53340    1.000
    N109     N        0.23520    0.68310    0.96970    1.000
    C121     C        0.25480    0.70700    0.90080    1.000
    C122     C        0.22960    0.74670    0.52970    1.000
    N110     N        0.33330    0.72620    0.97480    1.000
    C123     C        0.30790    0.73100    0.90420    1.000
    C124     C        0.25600    0.78820    0.53010    1.000
    N111     N        0.36590    0.98460    0.80570    1.000
    C125     C        0.17410    0.55390    0.70230    1.000
    C126     C        0.35310    0.92250    0.75980    1.000
    N112     N        0.38340    0.00430    0.75060    1.000
    C127     C        0.16740    0.56380    0.73180    1.000
    C128     C        0.35590    0.92980    0.73840    1.000
