# CIF file generated by openbabel 3.1.0, see https://openbabel.org
data_I
_chemical_name_common 'image0'
_cell_length_a 30.4133
_cell_length_b 34.588
_cell_length_c 27.5921
_cell_angle_alpha 90
_cell_angle_beta 90
_cell_angle_gamma 90
_space_group_name_H-M_alt 'P 1'
_space_group_name_Hall 'P 1'
loop_
    _symmetry_equiv_pos_as_xyz
    x,y,z
loop_
    _atom_site_label
    _atom_site_type_symbol
    _atom_site_fract_x
    _atom_site_fract_y
    _atom_site_fract_z
    _atom_site_occupancy
    Cd1      Cd       0.74706    0.39372    0.36871    1.000
    Cd2      Cd       0.83911    0.49782    0.55317    1.000
    K1       K        0.78907    0.44495    0.46299    1.000
    O1       O        0.60288    0.29291    0.73880    1.000
    O2       O        0.72600    0.43260    0.43440    1.000
    O3       O        0.93920    0.19732    0.64270    1.000
    O4       O        0.77910    0.50286    0.45780    1.000
    O5       O        0.79400    0.35241    0.39890    1.000
    O6       O        0.76530    0.44428    0.53260    1.000
    O7       O        0.79110    0.46824    0.60190    1.000
    O8       O        0.64100    0.30640    0.80380    1.000
    O9       O        0.80010    0.38713    0.46770    1.000
    O10      O        0.53450    0.61300    0.55450    1.000
    O11      O        0.95830    0.17730    0.56890    1.000
    O12      O        0.79030    0.53976    0.52360    1.000
    O13      O        0.56320    0.59750    0.62520    1.000
    O14      O        0.69400    0.44710    0.36500    1.000
    O15      O        0.64900    0.70540    0.28940    1.000
    C1       C        0.65200    0.34580    0.68310    1.000
    H1       H        0.63260    0.32960    0.66680    1.000
    O16      O        0.62240    0.71680    0.36160    1.000
    C2       C        0.65590    0.34370    0.73340    1.000
    C3       C        0.93720    0.20010    0.59840    1.000
    C4       C        0.67770    0.37260    0.65760    1.000
    C5       C        0.63220    0.31330    0.76130    1.000
    C6       C        0.67760    0.37360    0.60590    1.000
    H2       H        0.65940    0.35650    0.58940    1.000
    C7       C        0.73410    0.42240    0.60600    1.000
    C8       C        0.91240    0.23200    0.57620    1.000
    C9       C        0.90780    0.23480    0.52630    1.000
    H3       H        0.92090    0.21640    0.50640    1.000
    C10      C        0.64640    0.51280    0.50780    1.000
    C11      C        0.70200    0.39750    0.58050    1.000
    H4       H        0.69910    0.39870    0.54700    1.000
    C12      C        0.85390    0.29770    0.43490    1.000
    H5       H        0.84910    0.29870    0.40170    1.000
    C13      C        0.73330    0.42280    0.65390    1.000
    H6       H        0.75110    0.44050    0.67010    1.000
    C14      C        0.67280    0.48390    0.43500    1.000
    C15      C        0.83520    0.32580    0.46460    1.000
    C16      C        0.67300    0.48510    0.48320    1.000
    H7       H        0.69040    0.46800    0.50080    1.000
    C17      C        0.76610    0.44730    0.57740    1.000
    C18      C        0.80780    0.35840    0.44240    1.000
    C19      C        0.70660    0.39740    0.68190    1.000
    C20      C        0.86320    0.29290    0.53550    1.000
    C21      C        0.83830    0.32370    0.51220    1.000
    H8       H        0.82440    0.34230    0.53120    1.000
    C22      C        0.59390    0.56470    0.50630    1.000
    H9       H        0.57600    0.58110    0.48830    1.000
    C23      C        0.62140    0.53900    0.48150    1.000
    C24      C        0.87900    0.26860    0.45360    1.000
    H10      H        0.89300    0.25120    0.43300    1.000
    C25      C        0.59230    0.56660    0.55510    1.000
    C26      C        0.69930    0.45280    0.40950    1.000
    C27      C        0.70840    0.39540    0.73310    1.000
    H11      H        0.72620    0.41290    0.74960    1.000
    C28      C        0.74900    0.56600    0.46090    1.000
    C29      C        0.89090    0.26100    0.60670    1.000
    H12      H        0.89320    0.25940    0.64020    1.000
    C30      C        0.61940    0.54180    0.58240    1.000
    H13      H        0.61880    0.54270    0.61610    1.000
    C31      C        0.56180    0.59480    0.57920    1.000
    C32      C        0.88370    0.26510    0.50530    1.000
    C33      C        0.77450    0.53360    0.48130    1.000
    C34      C        0.64840    0.50940    0.40780    1.000
    H14      H        0.64930    0.50820    0.37410    1.000
    C35      C        0.64670    0.51640    0.55900    1.000
    H15      H        0.66580    0.50120    0.57710    1.000
    C36      C        0.68560    0.36970    0.75890    1.000
    H16      H        0.68870    0.36830    0.79240    1.000
    C37      C        0.70320    0.62880    0.42580    1.000
    C38      C        0.86830    0.28950    0.58670    1.000
    H17      H        0.85520    0.30780    0.60660    1.000
    C39      C        0.64710    0.69880    0.33090    1.000
    C40      C        0.62340    0.53590    0.42990    1.000
    H18      H        0.60680    0.55280    0.41110    1.000
    C41      C        0.72670    0.59280    0.49210    1.000
    H19      H        0.72630    0.58890    0.52540    1.000
    C42      C        0.74420    0.56850    0.41190    1.000
    H20      H        0.75610    0.55010    0.39120    1.000
    C43      C        0.71990    0.60140    0.39380    1.000
    C44      C        0.70530    0.62540    0.47170    1.000
    H21      H        0.69280    0.64410    0.49160    1.000
    C45      C        0.67630    0.66590    0.35640    1.000
    C46      C        0.69270    0.63930    0.32440    1.000
    H22      H        0.68810    0.64130    0.29110    1.000
    C47      C        0.71830    0.60690    0.34570    1.000
    H23      H        0.73350    0.59010    0.32540    1.000
    C48      C        0.67760    0.66240    0.40320    1.000
    H24      H        0.66310    0.68020    0.42290    1.000
    Cd3      Cd       0.74706    0.89372    0.86871    1.000
    Cd4      Cd       0.83911    0.99782    0.05317    1.000
    K2       K        0.78907    0.94495    0.96299    1.000
    O17      O        0.60288    0.79291    0.23880    1.000
    O18      O        0.72600    0.93260    0.93440    1.000
    O19      O        0.93920    0.69732    0.14270    1.000
    O20      O        0.77910    0.00286    0.95780    1.000
    O21      O        0.79400    0.85241    0.89890    1.000
    O22      O        0.76530    0.94428    0.03260    1.000
    O23      O        0.79110    0.96824    0.10190    1.000
    O24      O        0.64100    0.80640    0.30380    1.000
    O25      O        0.80010    0.88713    0.96770    1.000
    O26      O        0.53450    0.11300    0.05450    1.000
    O27      O        0.95830    0.67730    0.06890    1.000
    O28      O        0.79030    0.03976    0.02360    1.000
    O29      O        0.56320    0.09750    0.12520    1.000
    O30      O        0.69400    0.94710    0.86500    1.000
    O31      O        0.64900    0.20540    0.78940    1.000
    C49      C        0.65200    0.84580    0.18310    1.000
    H25      H        0.63260    0.82960    0.16680    1.000
    O32      O        0.62240    0.21680    0.86160    1.000
    C50      C        0.65590    0.84370    0.23340    1.000
    C51      C        0.93720    0.70010    0.09840    1.000
    C52      C        0.67770    0.87260    0.15760    1.000
    C53      C        0.63220    0.81330    0.26130    1.000
    C54      C        0.67760    0.87360    0.10590    1.000
    H26      H        0.65940    0.85650    0.08940    1.000
    C55      C        0.73410    0.92240    0.10600    1.000
    C56      C        0.91240    0.73200    0.07620    1.000
    C57      C        0.90780    0.73480    0.02630    1.000
    H27      H        0.92090    0.71640    0.00640    1.000
    C58      C        0.64640    0.01280    0.00780    1.000
    C59      C        0.70200    0.89750    0.08050    1.000
    H28      H        0.69910    0.89870    0.04700    1.000
    C60      C        0.85390    0.79770    0.93490    1.000
    H29      H        0.84910    0.79870    0.90170    1.000
    C61      C        0.73330    0.92280    0.15390    1.000
    H30      H        0.75110    0.94050    0.17010    1.000
    C62      C        0.67280    0.98390    0.93500    1.000
    C63      C        0.83520    0.82580    0.96460    1.000
    C64      C        0.67300    0.98510    0.98320    1.000
    H31      H        0.69040    0.96800    0.00080    1.000
    C65      C        0.76610    0.94730    0.07740    1.000
    C66      C        0.80780    0.85840    0.94240    1.000
    C67      C        0.70660    0.89740    0.18190    1.000
    C68      C        0.86320    0.79290    0.03550    1.000
    C69      C        0.83830    0.82370    0.01220    1.000
    H32      H        0.82440    0.84230    0.03120    1.000
    C70      C        0.59390    0.06470    0.00630    1.000
    H33      H        0.57600    0.08110    0.98830    1.000
    C71      C        0.62140    0.03900    0.98150    1.000
    C72      C        0.87900    0.76860    0.95360    1.000
    H34      H        0.89300    0.75120    0.93300    1.000
    C73      C        0.59230    0.06660    0.05510    1.000
    C74      C        0.69930    0.95280    0.90950    1.000
    C75      C        0.70840    0.89540    0.23310    1.000
    H35      H        0.72620    0.91290    0.24960    1.000
    C76      C        0.74900    0.06600    0.96090    1.000
    C77      C        0.89090    0.76100    0.10670    1.000
    H36      H        0.89320    0.75940    0.14020    1.000
    C78      C        0.61940    0.04180    0.08240    1.000
    H37      H        0.61880    0.04270    0.11610    1.000
    C79      C        0.56180    0.09480    0.07920    1.000
    C80      C        0.88370    0.76510    0.00530    1.000
    C81      C        0.77450    0.03360    0.98130    1.000
    C82      C        0.64840    0.00940    0.90780    1.000
    H38      H        0.64930    0.00820    0.87410    1.000
    C83      C        0.64670    0.01640    0.05900    1.000
    H39      H        0.66580    0.00120    0.07710    1.000
    C84      C        0.68560    0.86970    0.25890    1.000
    H40      H        0.68870    0.86830    0.29240    1.000
    C85      C        0.70320    0.12880    0.92580    1.000
    C86      C        0.86830    0.78950    0.08670    1.000
    H41      H        0.85520    0.80780    0.10660    1.000
    C87      C        0.64710    0.19880    0.83090    1.000
    C88      C        0.62340    0.03590    0.92990    1.000
    H42      H        0.60680    0.05280    0.91110    1.000
    C89      C        0.72670    0.09280    0.99210    1.000
    H43      H        0.72630    0.08890    0.02540    1.000
    C90      C        0.74420    0.06850    0.91190    1.000
    H44      H        0.75610    0.05010    0.89120    1.000
    C91      C        0.71990    0.10140    0.89380    1.000
    C92      C        0.70530    0.12540    0.97170    1.000
    H45      H        0.69280    0.14410    0.99160    1.000
    C93      C        0.67630    0.16590    0.85640    1.000
    C94      C        0.69270    0.13930    0.82440    1.000
    H46      H        0.68810    0.14130    0.79110    1.000
    C95      C        0.71830    0.10690    0.84570    1.000
    H47      H        0.73350    0.09010    0.82540    1.000
    C96      C        0.67760    0.16240    0.90320    1.000
    H48      H        0.66310    0.18020    0.92290    1.000
    Cd5      Cd       0.24706    0.39372    0.86871    1.000
    Cd6      Cd       0.33911    0.49782    0.05317    1.000
    K3       K        0.28907    0.44495    0.96299    1.000
    O33      O        0.10288    0.29291    0.23880    1.000
    O34      O        0.22600    0.43260    0.93440    1.000
    O35      O        0.43920    0.19732    0.14270    1.000
    O36      O        0.27910    0.50286    0.95780    1.000
    O37      O        0.29400    0.35241    0.89890    1.000
    O38      O        0.26530    0.44428    0.03260    1.000
    O39      O        0.29110    0.46824    0.10190    1.000
    O40      O        0.14100    0.30640    0.30380    1.000
    O41      O        0.30010    0.38713    0.96770    1.000
    O42      O        0.03450    0.61300    0.05450    1.000
    O43      O        0.45830    0.17730    0.06890    1.000
    O44      O        0.29030    0.53976    0.02360    1.000
    O45      O        0.06320    0.59750    0.12520    1.000
    O46      O        0.19400    0.44710    0.86500    1.000
    O47      O        0.14900    0.70540    0.78940    1.000
    C97      C        0.15200    0.34580    0.18310    1.000
    H49      H        0.13260    0.32960    0.16680    1.000
    O48      O        0.12240    0.71680    0.86160    1.000
    C98      C        0.15590    0.34370    0.23340    1.000
    C99      C        0.43720    0.20010    0.09840    1.000
    C100     C        0.17770    0.37260    0.15760    1.000
    C101     C        0.13220    0.31330    0.26130    1.000
    C102     C        0.17760    0.37360    0.10590    1.000
    H50      H        0.15940    0.35650    0.08940    1.000
    C103     C        0.23410    0.42240    0.10600    1.000
    C104     C        0.41240    0.23200    0.07620    1.000
    C105     C        0.40780    0.23480    0.02630    1.000
    H51      H        0.42090    0.21640    0.00640    1.000
    C106     C        0.14640    0.51280    0.00780    1.000
    C107     C        0.20200    0.39750    0.08050    1.000
    H52      H        0.19910    0.39870    0.04700    1.000
    C108     C        0.35390    0.29770    0.93490    1.000
    H53      H        0.34910    0.29870    0.90170    1.000
    C109     C        0.23330    0.42280    0.15390    1.000
    H54      H        0.25110    0.44050    0.17010    1.000
    C110     C        0.17280    0.48390    0.93500    1.000
    C111     C        0.33520    0.32580    0.96460    1.000
    C112     C        0.17300    0.48510    0.98320    1.000
    H55      H        0.19040    0.46800    0.00080    1.000
    C113     C        0.26610    0.44730    0.07740    1.000
    C114     C        0.30780    0.35840    0.94240    1.000
    C115     C        0.20660    0.39740    0.18190    1.000
    C116     C        0.36320    0.29290    0.03550    1.000
    C117     C        0.33830    0.32370    0.01220    1.000
    H56      H        0.32440    0.34230    0.03120    1.000
    C118     C        0.09390    0.56470    0.00630    1.000
    H57      H        0.07600    0.58110    0.98830    1.000
    C119     C        0.12140    0.53900    0.98150    1.000
    C120     C        0.37900    0.26860    0.95360    1.000
    H58      H        0.39300    0.25120    0.93300    1.000
    C121     C        0.09230    0.56660    0.05510    1.000
    C122     C        0.19930    0.45280    0.90950    1.000
    C123     C        0.20840    0.39540    0.23310    1.000
    H59      H        0.22620    0.41290    0.24960    1.000
    C124     C        0.24900    0.56600    0.96090    1.000
    C125     C        0.39090    0.26100    0.10670    1.000
    H60      H        0.39320    0.25940    0.14020    1.000
    C126     C        0.11940    0.54180    0.08240    1.000
    H61      H        0.11880    0.54270    0.11610    1.000
    C127     C        0.06180    0.59480    0.07920    1.000
    C128     C        0.38370    0.26510    0.00530    1.000
    C129     C        0.27450    0.53360    0.98130    1.000
    C130     C        0.14840    0.50940    0.90780    1.000
    H62      H        0.14930    0.50820    0.87410    1.000
    C131     C        0.14670    0.51640    0.05900    1.000
    H63      H        0.16580    0.50120    0.07710    1.000
    C132     C        0.18560    0.36970    0.25890    1.000
    H64      H        0.18870    0.36830    0.29240    1.000
    C133     C        0.20320    0.62880    0.92580    1.000
    C134     C        0.36830    0.28950    0.08670    1.000
    H65      H        0.35520    0.30780    0.10660    1.000
    C135     C        0.14710    0.69880    0.83090    1.000
    C136     C        0.12340    0.53590    0.92990    1.000
    H66      H        0.10680    0.55280    0.91110    1.000
    C137     C        0.22670    0.59280    0.99210    1.000
    H67      H        0.22630    0.58890    0.02540    1.000
    C138     C        0.24420    0.56850    0.91190    1.000
    H68      H        0.25610    0.55010    0.89120    1.000
    C139     C        0.21990    0.60140    0.89380    1.000
    C140     C        0.20530    0.62540    0.97170    1.000
    H69      H        0.19280    0.64410    0.99160    1.000
    C141     C        0.17630    0.66590    0.85640    1.000
    C142     C        0.19270    0.63930    0.82440    1.000
    H70      H        0.18810    0.64130    0.79110    1.000
    C143     C        0.21830    0.60690    0.84570    1.000
    H71      H        0.23350    0.59010    0.82540    1.000
    C144     C        0.17760    0.66240    0.90320    1.000
    H72      H        0.16310    0.68020    0.92290    1.000
    Cd7      Cd       0.24706    0.89372    0.36871    1.000
    Cd8      Cd       0.33911    0.99782    0.55317    1.000
    K4       K        0.28907    0.94495    0.46299    1.000
    O49      O        0.10288    0.79291    0.73880    1.000
    O50      O        0.22600    0.93260    0.43440    1.000
    O51      O        0.43920    0.69732    0.64270    1.000
    O52      O        0.27910    0.00286    0.45780    1.000
    O53      O        0.29400    0.85241    0.39890    1.000
    O54      O        0.26530    0.94428    0.53260    1.000
    O55      O        0.29110    0.96824    0.60190    1.000
    O56      O        0.14100    0.80640    0.80380    1.000
    O57      O        0.30010    0.88713    0.46770    1.000
    O58      O        0.03450    0.11300    0.55450    1.000
    O59      O        0.45830    0.67730    0.56890    1.000
    O60      O        0.29030    0.03976    0.52360    1.000
    O61      O        0.06320    0.09750    0.62520    1.000
    O62      O        0.19400    0.94710    0.36500    1.000
    O63      O        0.14900    0.20540    0.28940    1.000
    C145     C        0.15200    0.84580    0.68310    1.000
    H73      H        0.13260    0.82960    0.66680    1.000
    O64      O        0.12240    0.21680    0.36160    1.000
    C146     C        0.15590    0.84370    0.73340    1.000
    C147     C        0.43720    0.70010    0.59840    1.000
    C148     C        0.17770    0.87260    0.65760    1.000
    C149     C        0.13220    0.81330    0.76130    1.000
    C150     C        0.17760    0.87360    0.60590    1.000
    H74      H        0.15940    0.85650    0.58940    1.000
    C151     C        0.23410    0.92240    0.60600    1.000
    C152     C        0.41240    0.73200    0.57620    1.000
    C153     C        0.40780    0.73480    0.52630    1.000
    H75      H        0.42090    0.71640    0.50640    1.000
    C154     C        0.14640    0.01280    0.50780    1.000
    C155     C        0.20200    0.89750    0.58050    1.000
    H76      H        0.19910    0.89870    0.54700    1.000
    C156     C        0.35390    0.79770    0.43490    1.000
    H77      H        0.34910    0.79870    0.40170    1.000
    C157     C        0.23330    0.92280    0.65390    1.000
    H78      H        0.25110    0.94050    0.67010    1.000
    C158     C        0.17280    0.98390    0.43500    1.000
    C159     C        0.33520    0.82580    0.46460    1.000
    C160     C        0.17300    0.98510    0.48320    1.000
    H79      H        0.19040    0.96800    0.50080    1.000
    C161     C        0.26610    0.94730    0.57740    1.000
    C162     C        0.30780    0.85840    0.44240    1.000
    C163     C        0.20660    0.89740    0.68190    1.000
    C164     C        0.36320    0.79290    0.53550    1.000
    C165     C        0.33830    0.82370    0.51220    1.000
    H80      H        0.32440    0.84230    0.53120    1.000
    C166     C        0.09390    0.06470    0.50630    1.000
    H81      H        0.07600    0.08110    0.48830    1.000
    C167     C        0.12140    0.03900    0.48150    1.000
    C168     C        0.37900    0.76860    0.45360    1.000
    H82      H        0.39300    0.75120    0.43300    1.000
    C169     C        0.09230    0.06660    0.55510    1.000
    C170     C        0.19930    0.95280    0.40950    1.000
    C171     C        0.20840    0.89540    0.73310    1.000
    H83      H        0.22620    0.91290    0.74960    1.000
    C172     C        0.24900    0.06600    0.46090    1.000
    C173     C        0.39090    0.76100    0.60670    1.000
    H84      H        0.39320    0.75940    0.64020    1.000
    C174     C        0.11940    0.04180    0.58240    1.000
    H85      H        0.11880    0.04270    0.61610    1.000
    C175     C        0.06180    0.09480    0.57920    1.000
    C176     C        0.38370    0.76510    0.50530    1.000
    C177     C        0.27450    0.03360    0.48130    1.000
    C178     C        0.14840    0.00940    0.40780    1.000
    H86      H        0.14930    0.00820    0.37410    1.000
    C179     C        0.14670    0.01640    0.55900    1.000
    H87      H        0.16580    0.00120    0.57710    1.000
    C180     C        0.18560    0.86970    0.75890    1.000
    H88      H        0.18870    0.86830    0.79240    1.000
    C181     C        0.20320    0.12880    0.42580    1.000
    C182     C        0.36830    0.78950    0.58670    1.000
    H89      H        0.35520    0.80780    0.60660    1.000
    C183     C        0.14710    0.19880    0.33090    1.000
    C184     C        0.12340    0.03590    0.42990    1.000
    H90      H        0.10680    0.05280    0.41110    1.000
    C185     C        0.22670    0.09280    0.49210    1.000
    H91      H        0.22630    0.08890    0.52540    1.000
    C186     C        0.24420    0.06850    0.41190    1.000
    H92      H        0.25610    0.05010    0.39120    1.000
    C187     C        0.21990    0.10140    0.39380    1.000
    C188     C        0.20530    0.12540    0.47170    1.000
    H93      H        0.19280    0.14410    0.49160    1.000
    C189     C        0.17630    0.16590    0.35640    1.000
    C190     C        0.19270    0.13930    0.32440    1.000
    H94      H        0.18810    0.14130    0.29110    1.000
    C191     C        0.21830    0.10690    0.34570    1.000
    H95      H        0.23350    0.09010    0.32540    1.000
    C192     C        0.17760    0.16240    0.40320    1.000
    H96      H        0.16310    0.18020    0.42290    1.000
    Cd9      Cd       0.25294    0.60628    0.36871    1.000
    Cd10     Cd       0.16089    0.50218    0.55317    1.000
    K5       K        0.21093    0.55505    0.46299    1.000
    O65      O        0.39712    0.70709    0.73880    1.000
    O66      O        0.27400    0.56740    0.43440    1.000
    O67      O        0.06080    0.80268    0.64270    1.000
    O68      O        0.22090    0.49714    0.45780    1.000
    O69      O        0.20600    0.64759    0.39890    1.000
    O70      O        0.23470    0.55572    0.53260    1.000
    O71      O        0.20890    0.53176    0.60190    1.000
    O72      O        0.35900    0.69360    0.80380    1.000
    O73      O        0.19990    0.61287    0.46770    1.000
    O74      O        0.46550    0.38700    0.55450    1.000
    O75      O        0.04170    0.82270    0.56890    1.000
    O76      O        0.20970    0.46024    0.52360    1.000
    O77      O        0.43680    0.40250    0.62520    1.000
    O78      O        0.30600    0.55290    0.36500    1.000
    O79      O        0.35100    0.29460    0.28940    1.000
    C193     C        0.34800    0.65420    0.68310    1.000
    H97      H        0.36740    0.67040    0.66680    1.000
    O80      O        0.37760    0.28320    0.36160    1.000
    C194     C        0.34410    0.65630    0.73340    1.000
    C195     C        0.06280    0.79990    0.59840    1.000
    C196     C        0.32230    0.62740    0.65760    1.000
    C197     C        0.36780    0.68670    0.76130    1.000
    C198     C        0.32240    0.62640    0.60590    1.000
    H98      H        0.34060    0.64350    0.58940    1.000
    C199     C        0.26590    0.57760    0.60600    1.000
    C200     C        0.08760    0.76800    0.57620    1.000
    C201     C        0.09220    0.76520    0.52630    1.000
    H99      H        0.07910    0.78360    0.50640    1.000
    C202     C        0.35360    0.48720    0.50780    1.000
    C203     C        0.29800    0.60250    0.58050    1.000
    H100     H        0.30090    0.60130    0.54700    1.000
    C204     C        0.14610    0.70230    0.43490    1.000
    H101     H        0.15090    0.70130    0.40170    1.000
    C205     C        0.26670    0.57720    0.65390    1.000
    H102     H        0.24890    0.55950    0.67010    1.000
    C206     C        0.32720    0.51610    0.43500    1.000
    C207     C        0.16480    0.67420    0.46460    1.000
    C208     C        0.32700    0.51490    0.48320    1.000
    H103     H        0.30960    0.53200    0.50080    1.000
    C209     C        0.23390    0.55270    0.57740    1.000
    C210     C        0.19220    0.64160    0.44240    1.000
    C211     C        0.29340    0.60260    0.68190    1.000
    C212     C        0.13680    0.70710    0.53550    1.000
    C213     C        0.16170    0.67630    0.51220    1.000
    H104     H        0.17560    0.65770    0.53120    1.000
    C214     C        0.40610    0.43530    0.50630    1.000
    H105     H        0.42400    0.41890    0.48830    1.000
    C215     C        0.37860    0.46100    0.48150    1.000
    C216     C        0.12100    0.73140    0.45360    1.000
    H106     H        0.10700    0.74880    0.43300    1.000
    C217     C        0.40770    0.43340    0.55510    1.000
    C218     C        0.30070    0.54720    0.40950    1.000
    C219     C        0.29160    0.60460    0.73310    1.000
    H107     H        0.27380    0.58710    0.74960    1.000
    C220     C        0.25100    0.43400    0.46090    1.000
    C221     C        0.10910    0.73900    0.60670    1.000
    H108     H        0.10680    0.74060    0.64020    1.000
    C222     C        0.38060    0.45820    0.58240    1.000
    H109     H        0.38120    0.45730    0.61610    1.000
    C223     C        0.43820    0.40520    0.57920    1.000
    C224     C        0.11630    0.73490    0.50530    1.000
    C225     C        0.22550    0.46640    0.48130    1.000
    C226     C        0.35160    0.49060    0.40780    1.000
    H110     H        0.35070    0.49180    0.37410    1.000
    C227     C        0.35330    0.48360    0.55900    1.000
    H111     H        0.33420    0.49880    0.57710    1.000
    C228     C        0.31440    0.63030    0.75890    1.000
    H112     H        0.31130    0.63170    0.79240    1.000
    C229     C        0.29680    0.37120    0.42580    1.000
    C230     C        0.13170    0.71050    0.58670    1.000
    H113     H        0.14480    0.69220    0.60660    1.000
    C231     C        0.35290    0.30120    0.33090    1.000
    C232     C        0.37660    0.46410    0.42990    1.000
    H114     H        0.39320    0.44720    0.41110    1.000
    C233     C        0.27330    0.40720    0.49210    1.000
    H115     H        0.27370    0.41110    0.52540    1.000
    C234     C        0.25580    0.43150    0.41190    1.000
    H116     H        0.24390    0.44990    0.39120    1.000
    C235     C        0.28010    0.39860    0.39380    1.000
    C236     C        0.29470    0.37460    0.47170    1.000
    H117     H        0.30720    0.35590    0.49160    1.000
    C237     C        0.32370    0.33410    0.35640    1.000
    C238     C        0.30730    0.36070    0.32440    1.000
    H118     H        0.31190    0.35870    0.29110    1.000
    C239     C        0.28170    0.39310    0.34570    1.000
    H119     H        0.26650    0.40990    0.32540    1.000
    C240     C        0.32240    0.33760    0.40320    1.000
    H120     H        0.33690    0.31980    0.42290    1.000
    Cd11     Cd       0.25294    0.10628    0.86871    1.000
    Cd12     Cd       0.16089    0.00218    0.05317    1.000
    K6       K        0.21093    0.05505    0.96299    1.000
    O81      O        0.39712    0.20709    0.23880    1.000
    O82      O        0.27400    0.06740    0.93440    1.000
    O83      O        0.06080    0.30268    0.14270    1.000
    O84      O        0.22090    0.99714    0.95780    1.000
    O85      O        0.20600    0.14759    0.89890    1.000
    O86      O        0.23470    0.05572    0.03260    1.000
    O87      O        0.20890    0.03176    0.10190    1.000
    O88      O        0.35900    0.19360    0.30380    1.000
    O89      O        0.19990    0.11287    0.96770    1.000
    O90      O        0.46550    0.88700    0.05450    1.000
    O91      O        0.04170    0.32270    0.06890    1.000
    O92      O        0.20970    0.96024    0.02360    1.000
    O93      O        0.43680    0.90250    0.12520    1.000
    O94      O        0.30600    0.05290    0.86500    1.000
    O95      O        0.35100    0.79460    0.78940    1.000
    C241     C        0.34800    0.15420    0.18310    1.000
    H121     H        0.36740    0.17040    0.16680    1.000
    O96      O        0.37760    0.78320    0.86160    1.000
    C242     C        0.34410    0.15630    0.23340    1.000
    C243     C        0.06280    0.29990    0.09840    1.000
    C244     C        0.32230    0.12740    0.15760    1.000
    C245     C        0.36780    0.18670    0.26130    1.000
    C246     C        0.32240    0.12640    0.10590    1.000
    H122     H        0.34060    0.14350    0.08940    1.000
    C247     C        0.26590    0.07760    0.10600    1.000
    C248     C        0.08760    0.26800    0.07620    1.000
    C249     C        0.09220    0.26520    0.02630    1.000
    H123     H        0.07910    0.28360    0.00640    1.000
    C250     C        0.35360    0.98720    0.00780    1.000
    C251     C        0.29800    0.10250    0.08050    1.000
    H124     H        0.30090    0.10130    0.04700    1.000
    C252     C        0.14610    0.20230    0.93490    1.000
    H125     H        0.15090    0.20130    0.90170    1.000
    C253     C        0.26670    0.07720    0.15390    1.000
    H126     H        0.24890    0.05950    0.17010    1.000
    C254     C        0.32720    0.01610    0.93500    1.000
    C255     C        0.16480    0.17420    0.96460    1.000
    C256     C        0.32700    0.01490    0.98320    1.000
    H127     H        0.30960    0.03200    0.00080    1.000
    C257     C        0.23390    0.05270    0.07740    1.000
    C258     C        0.19220    0.14160    0.94240    1.000
    C259     C        0.29340    0.10260    0.18190    1.000
    C260     C        0.13680    0.20710    0.03550    1.000
    C261     C        0.16170    0.17630    0.01220    1.000
    H128     H        0.17560    0.15770    0.03120    1.000
    C262     C        0.40610    0.93530    0.00630    1.000
    H129     H        0.42400    0.91890    0.98830    1.000
    C263     C        0.37860    0.96100    0.98150    1.000
    C264     C        0.12100    0.23140    0.95360    1.000
    H130     H        0.10700    0.24880    0.93300    1.000
    C265     C        0.40770    0.93340    0.05510    1.000
    C266     C        0.30070    0.04720    0.90950    1.000
    C267     C        0.29160    0.10460    0.23310    1.000
    H131     H        0.27380    0.08710    0.24960    1.000
    C268     C        0.25100    0.93400    0.96090    1.000
    C269     C        0.10910    0.23900    0.10670    1.000
    H132     H        0.10680    0.24060    0.14020    1.000
    C270     C        0.38060    0.95820    0.08240    1.000
    H133     H        0.38120    0.95730    0.11610    1.000
    C271     C        0.43820    0.90520    0.07920    1.000
    C272     C        0.11630    0.23490    0.00530    1.000
    C273     C        0.22550    0.96640    0.98130    1.000
    C274     C        0.35160    0.99060    0.90780    1.000
    H134     H        0.35070    0.99180    0.87410    1.000
    C275     C        0.35330    0.98360    0.05900    1.000
    H135     H        0.33420    0.99880    0.07710    1.000
    C276     C        0.31440    0.13030    0.25890    1.000
    H136     H        0.31130    0.13170    0.29240    1.000
    C277     C        0.29680    0.87120    0.92580    1.000
    C278     C        0.13170    0.21050    0.08670    1.000
    H137     H        0.14480    0.19220    0.10660    1.000
    C279     C        0.35290    0.80120    0.83090    1.000
    C280     C        0.37660    0.96410    0.92990    1.000
    H138     H        0.39320    0.94720    0.91110    1.000
    C281     C        0.27330    0.90720    0.99210    1.000
    H139     H        0.27370    0.91110    0.02540    1.000
    C282     C        0.25580    0.93150    0.91190    1.000
    H140     H        0.24390    0.94990    0.89120    1.000
    C283     C        0.28010    0.89860    0.89380    1.000
    C284     C        0.29470    0.87460    0.97170    1.000
    H141     H        0.30720    0.85590    0.99160    1.000
    C285     C        0.32370    0.83410    0.85640    1.000
    C286     C        0.30730    0.86070    0.82440    1.000
    H142     H        0.31190    0.85870    0.79110    1.000
    C287     C        0.28170    0.89310    0.84570    1.000
    H143     H        0.26650    0.90990    0.82540    1.000
    C288     C        0.32240    0.83760    0.90320    1.000
    H144     H        0.33690    0.81980    0.92290    1.000
    Cd13     Cd       0.75294    0.60628    0.86871    1.000
    Cd14     Cd       0.66089    0.50218    0.05317    1.000
    K7       K        0.71093    0.55505    0.96299    1.000
    O97      O        0.89712    0.70709    0.23880    1.000
    O98      O        0.77400    0.56740    0.93440    1.000
    O99      O        0.56080    0.80268    0.14270    1.000
    O100     O        0.72090    0.49714    0.95780    1.000
    O101     O        0.70600    0.64759    0.89890    1.000
    O102     O        0.73470    0.55572    0.03260    1.000
    O103     O        0.70890    0.53176    0.10190    1.000
    O104     O        0.85900    0.69360    0.30380    1.000
    O105     O        0.69990    0.61287    0.96770    1.000
    O106     O        0.96550    0.38700    0.05450    1.000
    O107     O        0.54170    0.82270    0.06890    1.000
    O108     O        0.70970    0.46024    0.02360    1.000
    O109     O        0.93680    0.40250    0.12520    1.000
    O110     O        0.80600    0.55290    0.86500    1.000
    O111     O        0.85100    0.29460    0.78940    1.000
    C289     C        0.84800    0.65420    0.18310    1.000
    H145     H        0.86740    0.67040    0.16680    1.000
    O112     O        0.87760    0.28320    0.86160    1.000
    C290     C        0.84410    0.65630    0.23340    1.000
    C291     C        0.56280    0.79990    0.09840    1.000
    C292     C        0.82230    0.62740    0.15760    1.000
    C293     C        0.86780    0.68670    0.26130    1.000
    C294     C        0.82240    0.62640    0.10590    1.000
    H146     H        0.84060    0.64350    0.08940    1.000
    C295     C        0.76590    0.57760    0.10600    1.000
    C296     C        0.58760    0.76800    0.07620    1.000
    C297     C        0.59220    0.76520    0.02630    1.000
    H147     H        0.57910    0.78360    0.00640    1.000
    C298     C        0.85360    0.48720    0.00780    1.000
    C299     C        0.79800    0.60250    0.08050    1.000
    H148     H        0.80090    0.60130    0.04700    1.000
    C300     C        0.64610    0.70230    0.93490    1.000
    H149     H        0.65090    0.70130    0.90170    1.000
    C301     C        0.76670    0.57720    0.15390    1.000
    H150     H        0.74890    0.55950    0.17010    1.000
    C302     C        0.82720    0.51610    0.93500    1.000
    C303     C        0.66480    0.67420    0.96460    1.000
    C304     C        0.82700    0.51490    0.98320    1.000
    H151     H        0.80960    0.53200    0.00080    1.000
    C305     C        0.73390    0.55270    0.07740    1.000
    C306     C        0.69220    0.64160    0.94240    1.000
    C307     C        0.79340    0.60260    0.18190    1.000
    C308     C        0.63680    0.70710    0.03550    1.000
    C309     C        0.66170    0.67630    0.01220    1.000
    H152     H        0.67560    0.65770    0.03120    1.000
    C310     C        0.90610    0.43530    0.00630    1.000
    H153     H        0.92400    0.41890    0.98830    1.000
    C311     C        0.87860    0.46100    0.98150    1.000
    C312     C        0.62100    0.73140    0.95360    1.000
    H154     H        0.60700    0.74880    0.93300    1.000
    C313     C        0.90770    0.43340    0.05510    1.000
    C314     C        0.80070    0.54720    0.90950    1.000
    C315     C        0.79160    0.60460    0.23310    1.000
    H155     H        0.77380    0.58710    0.24960    1.000
    C316     C        0.75100    0.43400    0.96090    1.000
    C317     C        0.60910    0.73900    0.10670    1.000
    H156     H        0.60680    0.74060    0.14020    1.000
    C318     C        0.88060    0.45820    0.08240    1.000
    H157     H        0.88120    0.45730    0.11610    1.000
    C319     C        0.93820    0.40520    0.07920    1.000
    C320     C        0.61630    0.73490    0.00530    1.000
    C321     C        0.72550    0.46640    0.98130    1.000
    C322     C        0.85160    0.49060    0.90780    1.000
    H158     H        0.85070    0.49180    0.87410    1.000
    C323     C        0.85330    0.48360    0.05900    1.000
    H159     H        0.83420    0.49880    0.07710    1.000
    C324     C        0.81440    0.63030    0.25890    1.000
    H160     H        0.81130    0.63170    0.29240    1.000
    C325     C        0.79680    0.37120    0.92580    1.000
    C326     C        0.63170    0.71050    0.08670    1.000
    H161     H        0.64480    0.69220    0.10660    1.000
    C327     C        0.85290    0.30120    0.83090    1.000
    C328     C        0.87660    0.46410    0.92990    1.000
    H162     H        0.89320    0.44720    0.91110    1.000
    C329     C        0.77330    0.40720    0.99210    1.000
    H163     H        0.77370    0.41110    0.02540    1.000
    C330     C        0.75580    0.43150    0.91190    1.000
    H164     H        0.74390    0.44990    0.89120    1.000
    C331     C        0.78010    0.39860    0.89380    1.000
    C332     C        0.79470    0.37460    0.97170    1.000
    H165     H        0.80720    0.35590    0.99160    1.000
    C333     C        0.82370    0.33410    0.85640    1.000
    C334     C        0.80730    0.36070    0.82440    1.000
    H166     H        0.81190    0.35870    0.79110    1.000
    C335     C        0.78170    0.39310    0.84570    1.000
    H167     H        0.76650    0.40990    0.82540    1.000
    C336     C        0.82240    0.33760    0.90320    1.000
    H168     H        0.83690    0.31980    0.92290    1.000
    Cd15     Cd       0.75294    0.10628    0.36871    1.000
    Cd16     Cd       0.66089    0.00218    0.55317    1.000
    K8       K        0.71093    0.05505    0.46299    1.000
    O113     O        0.89712    0.20709    0.73880    1.000
    O114     O        0.77400    0.06740    0.43440    1.000
    O115     O        0.56080    0.30268    0.64270    1.000
    O116     O        0.72090    0.99714    0.45780    1.000
    O117     O        0.70600    0.14759    0.39890    1.000
    O118     O        0.73470    0.05572    0.53260    1.000
    O119     O        0.70890    0.03176    0.60190    1.000
    O120     O        0.85900    0.19360    0.80380    1.000
    O121     O        0.69990    0.11287    0.46770    1.000
    O122     O        0.96550    0.88700    0.55450    1.000
    O123     O        0.54170    0.32270    0.56890    1.000
    O124     O        0.70970    0.96024    0.52360    1.000
    O125     O        0.93680    0.90250    0.62520    1.000
    O126     O        0.80600    0.05290    0.36500    1.000
    O127     O        0.85100    0.79460    0.28940    1.000
    C337     C        0.84800    0.15420    0.68310    1.000
    H169     H        0.86740    0.17040    0.66680    1.000
    O128     O        0.87760    0.78320    0.36160    1.000
    C338     C        0.84410    0.15630    0.73340    1.000
    C339     C        0.56280    0.29990    0.59840    1.000
    C340     C        0.82230    0.12740    0.65760    1.000
    C341     C        0.86780    0.18670    0.76130    1.000
    C342     C        0.82240    0.12640    0.60590    1.000
    H170     H        0.84060    0.14350    0.58940    1.000
    C343     C        0.76590    0.07760    0.60600    1.000
    C344     C        0.58760    0.26800    0.57620    1.000
    C345     C        0.59220    0.26520    0.52630    1.000
    H171     H        0.57910    0.28360    0.50640    1.000
    C346     C        0.85360    0.98720    0.50780    1.000
    C347     C        0.79800    0.10250    0.58050    1.000
    H172     H        0.80090    0.10130    0.54700    1.000
    C348     C        0.64610    0.20230    0.43490    1.000
    H173     H        0.65090    0.20130    0.40170    1.000
    C349     C        0.76670    0.07720    0.65390    1.000
    H174     H        0.74890    0.05950    0.67010    1.000
    C350     C        0.82720    0.01610    0.43500    1.000
    C351     C        0.66480    0.17420    0.46460    1.000
    C352     C        0.82700    0.01490    0.48320    1.000
    H175     H        0.80960    0.03200    0.50080    1.000
    C353     C        0.73390    0.05270    0.57740    1.000
    C354     C        0.69220    0.14160    0.44240    1.000
    C355     C        0.79340    0.10260    0.68190    1.000
    C356     C        0.63680    0.20710    0.53550    1.000
    C357     C        0.66170    0.17630    0.51220    1.000
    H176     H        0.67560    0.15770    0.53120    1.000
    C358     C        0.90610    0.93530    0.50630    1.000
    H177     H        0.92400    0.91890    0.48830    1.000
    C359     C        0.87860    0.96100    0.48150    1.000
    C360     C        0.62100    0.23140    0.45360    1.000
    H178     H        0.60700    0.24880    0.43300    1.000
    C361     C        0.90770    0.93340    0.55510    1.000
    C362     C        0.80070    0.04720    0.40950    1.000
    C363     C        0.79160    0.10460    0.73310    1.000
    H179     H        0.77380    0.08710    0.74960    1.000
    C364     C        0.75100    0.93400    0.46090    1.000
    C365     C        0.60910    0.23900    0.60670    1.000
    H180     H        0.60680    0.24060    0.64020    1.000
    C366     C        0.88060    0.95820    0.58240    1.000
    H181     H        0.88120    0.95730    0.61610    1.000
    C367     C        0.93820    0.90520    0.57920    1.000
    C368     C        0.61630    0.23490    0.50530    1.000
    C369     C        0.72550    0.96640    0.48130    1.000
    C370     C        0.85160    0.99060    0.40780    1.000
    H182     H        0.85070    0.99180    0.37410    1.000
    C371     C        0.85330    0.98360    0.55900    1.000
    H183     H        0.83420    0.99880    0.57710    1.000
    C372     C        0.81440    0.13030    0.75890    1.000
    H184     H        0.81130    0.13170    0.79240    1.000
    C373     C        0.79680    0.87120    0.42580    1.000
    C374     C        0.63170    0.21050    0.58670    1.000
    H185     H        0.64480    0.19220    0.60660    1.000
    C375     C        0.85290    0.80120    0.33090    1.000
    C376     C        0.87660    0.96410    0.42990    1.000
    H186     H        0.89320    0.94720    0.41110    1.000
    C377     C        0.77330    0.90720    0.49210    1.000
    H187     H        0.77370    0.91110    0.52540    1.000
    C378     C        0.75580    0.93150    0.41190    1.000
    H188     H        0.74390    0.94990    0.39120    1.000
    C379     C        0.78010    0.89860    0.39380    1.000
    C380     C        0.79470    0.87460    0.47170    1.000
    H189     H        0.80720    0.85590    0.49160    1.000
    C381     C        0.82370    0.83410    0.35640    1.000
    C382     C        0.80730    0.86070    0.32440    1.000
    H190     H        0.81190    0.85870    0.29110    1.000
    C383     C        0.78170    0.89310    0.34570    1.000
    H191     H        0.76650    0.90990    0.32540    1.000
    C384     C        0.82240    0.83760    0.40320    1.000
    H192     H        0.83690    0.81980    0.42290    1.000
    Cd17     Cd       0.99706    0.85628    0.61871    1.000
    Cd18     Cd       0.08911    0.75218    0.80317    1.000
    K9       K        0.03907    0.80505    0.71299    1.000
    O129     O        0.85288    0.95709    0.98880    1.000
    O130     O        0.97600    0.81740    0.68440    1.000
    O131     O        0.18920    0.05268    0.89270    1.000
    O132     O        0.02910    0.74714    0.70780    1.000
    O133     O        0.04400    0.89759    0.64890    1.000
    O134     O        0.01530    0.80572    0.78260    1.000
    O135     O        0.04110    0.78176    0.85190    1.000
    O136     O        0.89100    0.94360    0.05380    1.000
    O137     O        0.05010    0.86287    0.71770    1.000
    O138     O        0.78450    0.63700    0.80450    1.000
    O139     O        0.20830    0.07270    0.81890    1.000
    O140     O        0.04030    0.71024    0.77360    1.000
    O141     O        0.81320    0.65250    0.87520    1.000
    O142     O        0.94400    0.80290    0.61500    1.000
    O143     O        0.89900    0.54460    0.53940    1.000
    C385     C        0.90200    0.90420    0.93310    1.000
    H193     H        0.88260    0.92040    0.91680    1.000
    O144     O        0.87240    0.53320    0.61160    1.000
    C386     C        0.90590    0.90630    0.98340    1.000
    C387     C        0.18720    0.04990    0.84840    1.000
    C388     C        0.92770    0.87740    0.90760    1.000
    C389     C        0.88220    0.93670    0.01130    1.000
    C390     C        0.92760    0.87640    0.85590    1.000
    H194     H        0.90940    0.89350    0.83940    1.000
    C391     C        0.98410    0.82760    0.85600    1.000
    C392     C        0.16240    0.01800    0.82620    1.000
    C393     C        0.15780    0.01520    0.77630    1.000
    H195     H        0.17090    0.03360    0.75640    1.000
    C394     C        0.89640    0.73720    0.75780    1.000
    C395     C        0.95200    0.85250    0.83050    1.000
    H196     H        0.94910    0.85130    0.79700    1.000
    C396     C        0.10390    0.95230    0.68490    1.000
    H197     H        0.09910    0.95130    0.65170    1.000
    C397     C        0.98330    0.82720    0.90390    1.000
    H198     H        0.00110    0.80950    0.92010    1.000
    C398     C        0.92280    0.76610    0.68500    1.000
    C399     C        0.08520    0.92420    0.71460    1.000
    C400     C        0.92300    0.76490    0.73320    1.000
    H199     H        0.94040    0.78200    0.75080    1.000
    C401     C        0.01610    0.80270    0.82740    1.000
    C402     C        0.05780    0.89160    0.69240    1.000
    C403     C        0.95660    0.85260    0.93190    1.000
    C404     C        0.11320    0.95710    0.78550    1.000
    C405     C        0.08830    0.92630    0.76220    1.000
    H200     H        0.07440    0.90770    0.78120    1.000
    C406     C        0.84390    0.68530    0.75630    1.000
    H201     H        0.82600    0.66890    0.73830    1.000
    C407     C        0.87140    0.71100    0.73150    1.000
    C408     C        0.12900    0.98140    0.70360    1.000
    H202     H        0.14300    0.99880    0.68300    1.000
    C409     C        0.84230    0.68340    0.80510    1.000
    C410     C        0.94930    0.79720    0.65950    1.000
    C411     C        0.95840    0.85460    0.98310    1.000
    H203     H        0.97620    0.83710    0.99960    1.000
    C412     C        0.99900    0.68400    0.71090    1.000
    C413     C        0.14090    0.98900    0.85670    1.000
    H204     H        0.14320    0.99060    0.89020    1.000
    C414     C        0.86940    0.70820    0.83240    1.000
    H205     H        0.86880    0.70730    0.86610    1.000
    C415     C        0.81180    0.65520    0.82920    1.000
    C416     C        0.13370    0.98490    0.75530    1.000
    C417     C        0.02450    0.71640    0.73130    1.000
    C418     C        0.89840    0.74060    0.65780    1.000
    H206     H        0.89930    0.74180    0.62410    1.000
    C419     C        0.89670    0.73360    0.80900    1.000
    H207     H        0.91580    0.74880    0.82710    1.000
    C420     C        0.93560    0.88030    0.00890    1.000
    H208     H        0.93870    0.88170    0.04240    1.000
    C421     C        0.95320    0.62120    0.67580    1.000
    C422     C        0.11830    0.96050    0.83670    1.000
    H209     H        0.10520    0.94220    0.85660    1.000
    C423     C        0.89710    0.55120    0.58090    1.000
    C424     C        0.87340    0.71410    0.67990    1.000
    H210     H        0.85680    0.69720    0.66110    1.000
    C425     C        0.97670    0.65720    0.74210    1.000
    H211     H        0.97630    0.66110    0.77540    1.000
    C426     C        0.99420    0.68150    0.66190    1.000
    H212     H        0.00610    0.69990    0.64120    1.000
    C427     C        0.96990    0.64860    0.64380    1.000
    C428     C        0.95530    0.62460    0.72170    1.000
    H213     H        0.94280    0.60590    0.74160    1.000
    C429     C        0.92630    0.58410    0.60640    1.000
    C430     C        0.94270    0.61070    0.57440    1.000
    H214     H        0.93810    0.60870    0.54110    1.000
    C431     C        0.96830    0.64310    0.59570    1.000
    H215     H        0.98350    0.65990    0.57540    1.000
    C432     C        0.92760    0.58760    0.65320    1.000
    H216     H        0.91310    0.56980    0.67290    1.000
    Cd19     Cd       0.99706    0.35628    0.11871    1.000
    Cd20     Cd       0.08911    0.25218    0.30317    1.000
    K10      K        0.03907    0.30505    0.21299    1.000
    O145     O        0.85288    0.45709    0.48880    1.000
    O146     O        0.97600    0.31740    0.18440    1.000
    O147     O        0.18920    0.55268    0.39270    1.000
    O148     O        0.02910    0.24714    0.20780    1.000
    O149     O        0.04400    0.39759    0.14890    1.000
    O150     O        0.01530    0.30572    0.28260    1.000
    O151     O        0.04110    0.28176    0.35190    1.000
    O152     O        0.89100    0.44360    0.55380    1.000
    O153     O        0.05010    0.36287    0.21770    1.000
    O154     O        0.78450    0.13700    0.30450    1.000
    O155     O        0.20830    0.57270    0.31890    1.000
    O156     O        0.04030    0.21024    0.27360    1.000
    O157     O        0.81320    0.15250    0.37520    1.000
    O158     O        0.94400    0.30290    0.11500    1.000
    O159     O        0.89900    0.04460    0.03940    1.000
    C433     C        0.90200    0.40420    0.43310    1.000
    H217     H        0.88260    0.42040    0.41680    1.000
    O160     O        0.87240    0.03320    0.11160    1.000
    C434     C        0.90590    0.40630    0.48340    1.000
    C435     C        0.18720    0.54990    0.34840    1.000
    C436     C        0.92770    0.37740    0.40760    1.000
    C437     C        0.88220    0.43670    0.51130    1.000
    C438     C        0.92760    0.37640    0.35590    1.000
    H218     H        0.90940    0.39350    0.33940    1.000
    C439     C        0.98410    0.32760    0.35600    1.000
    C440     C        0.16240    0.51800    0.32620    1.000
    C441     C        0.15780    0.51520    0.27630    1.000
    H219     H        0.17090    0.53360    0.25640    1.000
    C442     C        0.89640    0.23720    0.25780    1.000
    C443     C        0.95200    0.35250    0.33050    1.000
    H220     H        0.94910    0.35130    0.29700    1.000
    C444     C        0.10390    0.45230    0.18490    1.000
    H221     H        0.09910    0.45130    0.15170    1.000
    C445     C        0.98330    0.32720    0.40390    1.000
    H222     H        0.00110    0.30950    0.42010    1.000
    C446     C        0.92280    0.26610    0.18500    1.000
    C447     C        0.08520    0.42420    0.21460    1.000
    C448     C        0.92300    0.26490    0.23320    1.000
    H223     H        0.94040    0.28200    0.25080    1.000
    C449     C        0.01610    0.30270    0.32740    1.000
    C450     C        0.05780    0.39160    0.19240    1.000
    C451     C        0.95660    0.35260    0.43190    1.000
    C452     C        0.11320    0.45710    0.28550    1.000
    C453     C        0.08830    0.42630    0.26220    1.000
    H224     H        0.07440    0.40770    0.28120    1.000
    C454     C        0.84390    0.18530    0.25630    1.000
    H225     H        0.82600    0.16890    0.23830    1.000
    C455     C        0.87140    0.21100    0.23150    1.000
    C456     C        0.12900    0.48140    0.20360    1.000
    H226     H        0.14300    0.49880    0.18300    1.000
    C457     C        0.84230    0.18340    0.30510    1.000
    C458     C        0.94930    0.29720    0.15950    1.000
    C459     C        0.95840    0.35460    0.48310    1.000
    H227     H        0.97620    0.33710    0.49960    1.000
    C460     C        0.99900    0.18400    0.21090    1.000
    C461     C        0.14090    0.48900    0.35670    1.000
    H228     H        0.14320    0.49060    0.39020    1.000
    C462     C        0.86940    0.20820    0.33240    1.000
    H229     H        0.86880    0.20730    0.36610    1.000
    C463     C        0.81180    0.15520    0.32920    1.000
    C464     C        0.13370    0.48490    0.25530    1.000
    C465     C        0.02450    0.21640    0.23130    1.000
    C466     C        0.89840    0.24060    0.15780    1.000
    H230     H        0.89930    0.24180    0.12410    1.000
    C467     C        0.89670    0.23360    0.30900    1.000
    H231     H        0.91580    0.24880    0.32710    1.000
    C468     C        0.93560    0.38030    0.50890    1.000
    H232     H        0.93870    0.38170    0.54240    1.000
    C469     C        0.95320    0.12120    0.17580    1.000
    C470     C        0.11830    0.46050    0.33670    1.000
    H233     H        0.10520    0.44220    0.35660    1.000
    C471     C        0.89710    0.05120    0.08090    1.000
    C472     C        0.87340    0.21410    0.17990    1.000
    H234     H        0.85680    0.19720    0.16110    1.000
    C473     C        0.97670    0.15720    0.24210    1.000
    H235     H        0.97630    0.16110    0.27540    1.000
    C474     C        0.99420    0.18150    0.16190    1.000
    H236     H        0.00610    0.19990    0.14120    1.000
    C475     C        0.96990    0.14860    0.14380    1.000
    C476     C        0.95530    0.12460    0.22170    1.000
    H237     H        0.94280    0.10590    0.24160    1.000
    C477     C        0.92630    0.08410    0.10640    1.000
    C478     C        0.94270    0.11070    0.07440    1.000
    H238     H        0.93810    0.10870    0.04110    1.000
    C479     C        0.96830    0.14310    0.09570    1.000
    H239     H        0.98350    0.15990    0.07540    1.000
    C480     C        0.92760    0.08760    0.15320    1.000
    H240     H        0.91310    0.06980    0.17290    1.000
    Cd21     Cd       0.49706    0.85628    0.11871    1.000
    Cd22     Cd       0.58911    0.75218    0.30317    1.000
    K11      K        0.53907    0.80505    0.21299    1.000
    O161     O        0.35288    0.95709    0.48880    1.000
    O162     O        0.47600    0.81740    0.18440    1.000
    O163     O        0.68920    0.05268    0.39270    1.000
    O164     O        0.52910    0.74714    0.20780    1.000
    O165     O        0.54400    0.89759    0.14890    1.000
    O166     O        0.51530    0.80572    0.28260    1.000
    O167     O        0.54110    0.78176    0.35190    1.000
    O168     O        0.39100    0.94360    0.55380    1.000
    O169     O        0.55010    0.86287    0.21770    1.000
    O170     O        0.28450    0.63700    0.30450    1.000
    O171     O        0.70830    0.07270    0.31890    1.000
    O172     O        0.54030    0.71024    0.27360    1.000
    O173     O        0.31320    0.65250    0.37520    1.000
    O174     O        0.44400    0.80290    0.11500    1.000
    O175     O        0.39900    0.54460    0.03940    1.000
    C481     C        0.40200    0.90420    0.43310    1.000
    H241     H        0.38260    0.92040    0.41680    1.000
    O176     O        0.37240    0.53320    0.11160    1.000
    C482     C        0.40590    0.90630    0.48340    1.000
    C483     C        0.68720    0.04990    0.34840    1.000
    C484     C        0.42770    0.87740    0.40760    1.000
    C485     C        0.38220    0.93670    0.51130    1.000
    C486     C        0.42760    0.87640    0.35590    1.000
    H242     H        0.40940    0.89350    0.33940    1.000
    C487     C        0.48410    0.82760    0.35600    1.000
    C488     C        0.66240    0.01800    0.32620    1.000
    C489     C        0.65780    0.01520    0.27630    1.000
    H243     H        0.67090    0.03360    0.25640    1.000
    C490     C        0.39640    0.73720    0.25780    1.000
    C491     C        0.45200    0.85250    0.33050    1.000
    H244     H        0.44910    0.85130    0.29700    1.000
    C492     C        0.60390    0.95230    0.18490    1.000
    H245     H        0.59910    0.95130    0.15170    1.000
    C493     C        0.48330    0.82720    0.40390    1.000
    H246     H        0.50110    0.80950    0.42010    1.000
    C494     C        0.42280    0.76610    0.18500    1.000
    C495     C        0.58520    0.92420    0.21460    1.000
    C496     C        0.42300    0.76490    0.23320    1.000
    H247     H        0.44040    0.78200    0.25080    1.000
    C497     C        0.51610    0.80270    0.32740    1.000
    C498     C        0.55780    0.89160    0.19240    1.000
    C499     C        0.45660    0.85260    0.43190    1.000
    C500     C        0.61320    0.95710    0.28550    1.000
    C501     C        0.58830    0.92630    0.26220    1.000
    H248     H        0.57440    0.90770    0.28120    1.000
    C502     C        0.34390    0.68530    0.25630    1.000
    H249     H        0.32600    0.66890    0.23830    1.000
    C503     C        0.37140    0.71100    0.23150    1.000
    C504     C        0.62900    0.98140    0.20360    1.000
    H250     H        0.64300    0.99880    0.18300    1.000
    C505     C        0.34230    0.68340    0.30510    1.000
    C506     C        0.44930    0.79720    0.15950    1.000
    C507     C        0.45840    0.85460    0.48310    1.000
    H251     H        0.47620    0.83710    0.49960    1.000
    C508     C        0.49900    0.68400    0.21090    1.000
    C509     C        0.64090    0.98900    0.35670    1.000
    H252     H        0.64320    0.99060    0.39020    1.000
    C510     C        0.36940    0.70820    0.33240    1.000
    H253     H        0.36880    0.70730    0.36610    1.000
    C511     C        0.31180    0.65520    0.32920    1.000
    C512     C        0.63370    0.98490    0.25530    1.000
    C513     C        0.52450    0.71640    0.23130    1.000
    C514     C        0.39840    0.74060    0.15780    1.000
    H254     H        0.39930    0.74180    0.12410    1.000
    C515     C        0.39670    0.73360    0.30900    1.000
    H255     H        0.41580    0.74880    0.32710    1.000
    C516     C        0.43560    0.88030    0.50890    1.000
    H256     H        0.43870    0.88170    0.54240    1.000
    C517     C        0.45320    0.62120    0.17580    1.000
    C518     C        0.61830    0.96050    0.33670    1.000
    H257     H        0.60520    0.94220    0.35660    1.000
    C519     C        0.39710    0.55120    0.08090    1.000
    C520     C        0.37340    0.71410    0.17990    1.000
    H258     H        0.35680    0.69720    0.16110    1.000
    C521     C        0.47670    0.65720    0.24210    1.000
    H259     H        0.47630    0.66110    0.27540    1.000
    C522     C        0.49420    0.68150    0.16190    1.000
    H260     H        0.50610    0.69990    0.14120    1.000
    C523     C        0.46990    0.64860    0.14380    1.000
    C524     C        0.45530    0.62460    0.22170    1.000
    H261     H        0.44280    0.60590    0.24160    1.000
    C525     C        0.42630    0.58410    0.10640    1.000
    C526     C        0.44270    0.61070    0.07440    1.000
    H262     H        0.43810    0.60870    0.04110    1.000
    C527     C        0.46830    0.64310    0.09570    1.000
    H263     H        0.48350    0.65990    0.07540    1.000
    C528     C        0.42760    0.58760    0.15320    1.000
    H264     H        0.41310    0.56980    0.17290    1.000
    Cd23     Cd       0.49706    0.35628    0.61871    1.000
    Cd24     Cd       0.58911    0.25218    0.80317    1.000
    K12      K        0.53907    0.30505    0.71299    1.000
    O177     O        0.35288    0.45709    0.98880    1.000
    O178     O        0.47600    0.31740    0.68440    1.000
    O179     O        0.68920    0.55268    0.89270    1.000
    O180     O        0.52910    0.24714    0.70780    1.000
    O181     O        0.54400    0.39759    0.64890    1.000
    O182     O        0.51530    0.30572    0.78260    1.000
    O183     O        0.54110    0.28176    0.85190    1.000
    O184     O        0.39100    0.44360    0.05380    1.000
    O185     O        0.55010    0.36287    0.71770    1.000
    O186     O        0.28450    0.13700    0.80450    1.000
    O187     O        0.70830    0.57270    0.81890    1.000
    O188     O        0.54030    0.21024    0.77360    1.000
    O189     O        0.31320    0.15250    0.87520    1.000
    O190     O        0.44400    0.30290    0.61500    1.000
    O191     O        0.39900    0.04460    0.53940    1.000
    C529     C        0.40200    0.40420    0.93310    1.000
    H265     H        0.38260    0.42040    0.91680    1.000
    O192     O        0.37240    0.03320    0.61160    1.000
    C530     C        0.40590    0.40630    0.98340    1.000
    C531     C        0.68720    0.54990    0.84840    1.000
    C532     C        0.42770    0.37740    0.90760    1.000
    C533     C        0.38220    0.43670    0.01130    1.000
    C534     C        0.42760    0.37640    0.85590    1.000
    H266     H        0.40940    0.39350    0.83940    1.000
    C535     C        0.48410    0.32760    0.85600    1.000
    C536     C        0.66240    0.51800    0.82620    1.000
    C537     C        0.65780    0.51520    0.77630    1.000
    H267     H        0.67090    0.53360    0.75640    1.000
    C538     C        0.39640    0.23720    0.75780    1.000
    C539     C        0.45200    0.35250    0.83050    1.000
    H268     H        0.44910    0.35130    0.79700    1.000
    C540     C        0.60390    0.45230    0.68490    1.000
    H269     H        0.59910    0.45130    0.65170    1.000
    C541     C        0.48330    0.32720    0.90390    1.000
    H270     H        0.50110    0.30950    0.92010    1.000
    C542     C        0.42280    0.26610    0.68500    1.000
    C543     C        0.58520    0.42420    0.71460    1.000
    C544     C        0.42300    0.26490    0.73320    1.000
    H271     H        0.44040    0.28200    0.75080    1.000
    C545     C        0.51610    0.30270    0.82740    1.000
    C546     C        0.55780    0.39160    0.69240    1.000
    C547     C        0.45660    0.35260    0.93190    1.000
    C548     C        0.61320    0.45710    0.78550    1.000
    C549     C        0.58830    0.42630    0.76220    1.000
    H272     H        0.57440    0.40770    0.78120    1.000
    C550     C        0.34390    0.18530    0.75630    1.000
    H273     H        0.32600    0.16890    0.73830    1.000
    C551     C        0.37140    0.21100    0.73150    1.000
    C552     C        0.62900    0.48140    0.70360    1.000
    H274     H        0.64300    0.49880    0.68300    1.000
    C553     C        0.34230    0.18340    0.80510    1.000
    C554     C        0.44930    0.29720    0.65950    1.000
    C555     C        0.45840    0.35460    0.98310    1.000
    H275     H        0.47620    0.33710    0.99960    1.000
    C556     C        0.49900    0.18400    0.71090    1.000
    C557     C        0.64090    0.48900    0.85670    1.000
    H276     H        0.64320    0.49060    0.89020    1.000
    C558     C        0.36940    0.20820    0.83240    1.000
    H277     H        0.36880    0.20730    0.86610    1.000
    C559     C        0.31180    0.15520    0.82920    1.000
    C560     C        0.63370    0.48490    0.75530    1.000
    C561     C        0.52450    0.21640    0.73130    1.000
    C562     C        0.39840    0.24060    0.65780    1.000
    H278     H        0.39930    0.24180    0.62410    1.000
    C563     C        0.39670    0.23360    0.80900    1.000
    H279     H        0.41580    0.24880    0.82710    1.000
    C564     C        0.43560    0.38030    0.00890    1.000
    H280     H        0.43870    0.38170    0.04240    1.000
    C565     C        0.45320    0.12120    0.67580    1.000
    C566     C        0.61830    0.46050    0.83670    1.000
    H281     H        0.60520    0.44220    0.85660    1.000
    C567     C        0.39710    0.05120    0.58090    1.000
    C568     C        0.37340    0.21410    0.67990    1.000
    H282     H        0.35680    0.19720    0.66110    1.000
    C569     C        0.47670    0.15720    0.74210    1.000
    H283     H        0.47630    0.16110    0.77540    1.000
    C570     C        0.49420    0.18150    0.66190    1.000
    H284     H        0.50610    0.19990    0.64120    1.000
    C571     C        0.46990    0.14860    0.64380    1.000
    C572     C        0.45530    0.12460    0.72170    1.000
    H285     H        0.44280    0.10590    0.74160    1.000
    C573     C        0.42630    0.08410    0.60640    1.000
    C574     C        0.44270    0.11070    0.57440    1.000
    H286     H        0.43810    0.10870    0.54110    1.000
    C575     C        0.46830    0.14310    0.59570    1.000
    H287     H        0.48350    0.15990    0.57540    1.000
    C576     C        0.42760    0.08760    0.65320    1.000
    H288     H        0.41310    0.06980    0.67290    1.000
    Cd25     Cd       0.50294    0.64372    0.61871    1.000
    Cd26     Cd       0.41089    0.74782    0.80317    1.000
    K13      K        0.46093    0.69495    0.71299    1.000
    O193     O        0.64712    0.54291    0.98880    1.000
    O194     O        0.52400    0.68260    0.68440    1.000
    O195     O        0.31080    0.44732    0.89270    1.000
    O196     O        0.47090    0.75286    0.70780    1.000
    O197     O        0.45600    0.60241    0.64890    1.000
    O198     O        0.48470    0.69428    0.78260    1.000
    O199     O        0.45890    0.71824    0.85190    1.000
    O200     O        0.60900    0.55640    0.05380    1.000
    O201     O        0.44990    0.63713    0.71770    1.000
    O202     O        0.71550    0.86300    0.80450    1.000
    O203     O        0.29170    0.42730    0.81890    1.000
    O204     O        0.45970    0.78976    0.77360    1.000
    O205     O        0.68680    0.84750    0.87520    1.000
    O206     O        0.55600    0.69710    0.61500    1.000
    O207     O        0.60100    0.95540    0.53940    1.000
    C577     C        0.59800    0.59580    0.93310    1.000
    H289     H        0.61740    0.57960    0.91680    1.000
    O208     O        0.62760    0.96680    0.61160    1.000
    C578     C        0.59410    0.59370    0.98340    1.000
    C579     C        0.31280    0.45010    0.84840    1.000
    C580     C        0.57230    0.62260    0.90760    1.000
    C581     C        0.61780    0.56330    0.01130    1.000
    C582     C        0.57240    0.62360    0.85590    1.000
    H290     H        0.59060    0.60650    0.83940    1.000
    C583     C        0.51590    0.67240    0.85600    1.000
    C584     C        0.33760    0.48200    0.82620    1.000
    C585     C        0.34220    0.48480    0.77630    1.000
    H291     H        0.32910    0.46640    0.75640    1.000
    C586     C        0.60360    0.76280    0.75780    1.000
    C587     C        0.54800    0.64750    0.83050    1.000
    H292     H        0.55090    0.64870    0.79700    1.000
    C588     C        0.39610    0.54770    0.68490    1.000
    H293     H        0.40090    0.54870    0.65170    1.000
    C589     C        0.51670    0.67280    0.90390    1.000
    H294     H        0.49890    0.69050    0.92010    1.000
    C590     C        0.57720    0.73390    0.68500    1.000
    C591     C        0.41480    0.57580    0.71460    1.000
    C592     C        0.57700    0.73510    0.73320    1.000
    H295     H        0.55960    0.71800    0.75080    1.000
    C593     C        0.48390    0.69730    0.82740    1.000
    C594     C        0.44220    0.60840    0.69240    1.000
    C595     C        0.54340    0.64740    0.93190    1.000
    C596     C        0.38680    0.54290    0.78550    1.000
    C597     C        0.41170    0.57370    0.76220    1.000
    H296     H        0.42560    0.59230    0.78120    1.000
    C598     C        0.65610    0.81470    0.75630    1.000
    H297     H        0.67400    0.83110    0.73830    1.000
    C599     C        0.62860    0.78900    0.73150    1.000
    C600     C        0.37100    0.51860    0.70360    1.000
    H298     H        0.35700    0.50120    0.68300    1.000
    C601     C        0.65770    0.81660    0.80510    1.000
    C602     C        0.55070    0.70280    0.65950    1.000
    C603     C        0.54160    0.64540    0.98310    1.000
    H299     H        0.52380    0.66290    0.99960    1.000
    C604     C        0.50100    0.81600    0.71090    1.000
    C605     C        0.35910    0.51100    0.85670    1.000
    H300     H        0.35680    0.50940    0.89020    1.000
    C606     C        0.63060    0.79180    0.83240    1.000
    H301     H        0.63120    0.79270    0.86610    1.000
    C607     C        0.68820    0.84480    0.82920    1.000
    C608     C        0.36630    0.51510    0.75530    1.000
    C609     C        0.47550    0.78360    0.73130    1.000
    C610     C        0.60160    0.75940    0.65780    1.000
    H302     H        0.60070    0.75820    0.62410    1.000
    C611     C        0.60330    0.76640    0.80900    1.000
    H303     H        0.58420    0.75120    0.82710    1.000
    C612     C        0.56440    0.61970    0.00890    1.000
    H304     H        0.56130    0.61830    0.04240    1.000
    C613     C        0.54680    0.87880    0.67580    1.000
    C614     C        0.38170    0.53950    0.83670    1.000
    H305     H        0.39480    0.55780    0.85660    1.000
    C615     C        0.60290    0.94880    0.58090    1.000
    C616     C        0.62660    0.78590    0.67990    1.000
    H306     H        0.64320    0.80280    0.66110    1.000
    C617     C        0.52330    0.84280    0.74210    1.000
    H307     H        0.52370    0.83890    0.77540    1.000
    C618     C        0.50580    0.81850    0.66190    1.000
    H308     H        0.49390    0.80010    0.64120    1.000
    C619     C        0.53010    0.85140    0.64380    1.000
    C620     C        0.54470    0.87540    0.72170    1.000
    H309     H        0.55720    0.89410    0.74160    1.000
    C621     C        0.57370    0.91590    0.60640    1.000
    C622     C        0.55730    0.88930    0.57440    1.000
    H310     H        0.56190    0.89130    0.54110    1.000
    C623     C        0.53170    0.85690    0.59570    1.000
    H311     H        0.51650    0.84010    0.57540    1.000
    C624     C        0.57240    0.91240    0.65320    1.000
    H312     H        0.58690    0.93020    0.67290    1.000
    Cd27     Cd       0.50294    0.14372    0.11871    1.000
    Cd28     Cd       0.41089    0.24782    0.30317    1.000
    K14      K        0.46093    0.19495    0.21299    1.000
    O209     O        0.64712    0.04291    0.48880    1.000
    O210     O        0.52400    0.18260    0.18440    1.000
    O211     O        0.31080    0.94732    0.39270    1.000
    O212     O        0.47090    0.25286    0.20780    1.000
    O213     O        0.45600    0.10241    0.14890    1.000
    O214     O        0.48470    0.19428    0.28260    1.000
    O215     O        0.45890    0.21824    0.35190    1.000
    O216     O        0.60900    0.05640    0.55380    1.000
    O217     O        0.44990    0.13713    0.21770    1.000
    O218     O        0.71550    0.36300    0.30450    1.000
    O219     O        0.29170    0.92730    0.31890    1.000
    O220     O        0.45970    0.28976    0.27360    1.000
    O221     O        0.68680    0.34750    0.37520    1.000
    O222     O        0.55600    0.19710    0.11500    1.000
    O223     O        0.60100    0.45540    0.03940    1.000
    C625     C        0.59800    0.09580    0.43310    1.000
    H313     H        0.61740    0.07960    0.41680    1.000
    O224     O        0.62760    0.46680    0.11160    1.000
    C626     C        0.59410    0.09370    0.48340    1.000
    C627     C        0.31280    0.95010    0.34840    1.000
    C628     C        0.57230    0.12260    0.40760    1.000
    C629     C        0.61780    0.06330    0.51130    1.000
    C630     C        0.57240    0.12360    0.35590    1.000
    H314     H        0.59060    0.10650    0.33940    1.000
    C631     C        0.51590    0.17240    0.35600    1.000
    C632     C        0.33760    0.98200    0.32620    1.000
    C633     C        0.34220    0.98480    0.27630    1.000
    H315     H        0.32910    0.96640    0.25640    1.000
    C634     C        0.60360    0.26280    0.25780    1.000
    C635     C        0.54800    0.14750    0.33050    1.000
    H316     H        0.55090    0.14870    0.29700    1.000
    C636     C        0.39610    0.04770    0.18490    1.000
    H317     H        0.40090    0.04870    0.15170    1.000
    C637     C        0.51670    0.17280    0.40390    1.000
    H318     H        0.49890    0.19050    0.42010    1.000
    C638     C        0.57720    0.23390    0.18500    1.000
    C639     C        0.41480    0.07580    0.21460    1.000
    C640     C        0.57700    0.23510    0.23320    1.000
    H319     H        0.55960    0.21800    0.25080    1.000
    C641     C        0.48390    0.19730    0.32740    1.000
    C642     C        0.44220    0.10840    0.19240    1.000
    C643     C        0.54340    0.14740    0.43190    1.000
    C644     C        0.38680    0.04290    0.28550    1.000
    C645     C        0.41170    0.07370    0.26220    1.000
    H320     H        0.42560    0.09230    0.28120    1.000
    C646     C        0.65610    0.31470    0.25630    1.000
    H321     H        0.67400    0.33110    0.23830    1.000
    C647     C        0.62860    0.28900    0.23150    1.000
    C648     C        0.37100    0.01860    0.20360    1.000
    H322     H        0.35700    0.00120    0.18300    1.000
    C649     C        0.65770    0.31660    0.30510    1.000
    C650     C        0.55070    0.20280    0.15950    1.000
    C651     C        0.54160    0.14540    0.48310    1.000
    H323     H        0.52380    0.16290    0.49960    1.000
    C652     C        0.50100    0.31600    0.21090    1.000
    C653     C        0.35910    0.01100    0.35670    1.000
    H324     H        0.35680    0.00940    0.39020    1.000
    C654     C        0.63060    0.29180    0.33240    1.000
    H325     H        0.63120    0.29270    0.36610    1.000
    C655     C        0.68820    0.34480    0.32920    1.000
    C656     C        0.36630    0.01510    0.25530    1.000
    C657     C        0.47550    0.28360    0.23130    1.000
    C658     C        0.60160    0.25940    0.15780    1.000
    H326     H        0.60070    0.25820    0.12410    1.000
    C659     C        0.60330    0.26640    0.30900    1.000
    H327     H        0.58420    0.25120    0.32710    1.000
    C660     C        0.56440    0.11970    0.50890    1.000
    H328     H        0.56130    0.11830    0.54240    1.000
    C661     C        0.54680    0.37880    0.17580    1.000
    C662     C        0.38170    0.03950    0.33670    1.000
    H329     H        0.39480    0.05780    0.35660    1.000
    C663     C        0.60290    0.44880    0.08090    1.000
    C664     C        0.62660    0.28590    0.17990    1.000
    H330     H        0.64320    0.30280    0.16110    1.000
    C665     C        0.52330    0.34280    0.24210    1.000
    H331     H        0.52370    0.33890    0.27540    1.000
    C666     C        0.50580    0.31850    0.16190    1.000
    H332     H        0.49390    0.30010    0.14120    1.000
    C667     C        0.53010    0.35140    0.14380    1.000
    C668     C        0.54470    0.37540    0.22170    1.000
    H333     H        0.55720    0.39410    0.24160    1.000
    C669     C        0.57370    0.41590    0.10640    1.000
    C670     C        0.55730    0.38930    0.07440    1.000
    H334     H        0.56190    0.39130    0.04110    1.000
    C671     C        0.53170    0.35690    0.09570    1.000
    H335     H        0.51650    0.34010    0.07540    1.000
    C672     C        0.57240    0.41240    0.15320    1.000
    H336     H        0.58690    0.43020    0.17290    1.000
    Cd29     Cd       0.00294    0.64372    0.11871    1.000
    Cd30     Cd       0.91089    0.74782    0.30317    1.000
    K15      K        0.96093    0.69495    0.21299    1.000
    O225     O        0.14712    0.54291    0.48880    1.000
    O226     O        0.02400    0.68260    0.18440    1.000
    O227     O        0.81080    0.44732    0.39270    1.000
    O228     O        0.97090    0.75286    0.20780    1.000
    O229     O        0.95600    0.60241    0.14890    1.000
    O230     O        0.98470    0.69428    0.28260    1.000
    O231     O        0.95890    0.71824    0.35190    1.000
    O232     O        0.10900    0.55640    0.55380    1.000
    O233     O        0.94990    0.63713    0.21770    1.000
    O234     O        0.21550    0.86300    0.30450    1.000
    O235     O        0.79170    0.42730    0.31890    1.000
    O236     O        0.95970    0.78976    0.27360    1.000
    O237     O        0.18680    0.84750    0.37520    1.000
    O238     O        0.05600    0.69710    0.11500    1.000
    O239     O        0.10100    0.95540    0.03940    1.000
    C673     C        0.09800    0.59580    0.43310    1.000
    H337     H        0.11740    0.57960    0.41680    1.000
    O240     O        0.12760    0.96680    0.11160    1.000
    C674     C        0.09410    0.59370    0.48340    1.000
    C675     C        0.81280    0.45010    0.34840    1.000
    C676     C        0.07230    0.62260    0.40760    1.000
    C677     C        0.11780    0.56330    0.51130    1.000
    C678     C        0.07240    0.62360    0.35590    1.000
    H338     H        0.09060    0.60650    0.33940    1.000
    C679     C        0.01590    0.67240    0.35600    1.000
    C680     C        0.83760    0.48200    0.32620    1.000
    C681     C        0.84220    0.48480    0.27630    1.000
    H339     H        0.82910    0.46640    0.25640    1.000
    C682     C        0.10360    0.76280    0.25780    1.000
    C683     C        0.04800    0.64750    0.33050    1.000
    H340     H        0.05090    0.64870    0.29700    1.000
    C684     C        0.89610    0.54770    0.18490    1.000
    H341     H        0.90090    0.54870    0.15170    1.000
    C685     C        0.01670    0.67280    0.40390    1.000
    H342     H        0.99890    0.69050    0.42010    1.000
    C686     C        0.07720    0.73390    0.18500    1.000
    C687     C        0.91480    0.57580    0.21460    1.000
    C688     C        0.07700    0.73510    0.23320    1.000
    H343     H        0.05960    0.71800    0.25080    1.000
    C689     C        0.98390    0.69730    0.32740    1.000
    C690     C        0.94220    0.60840    0.19240    1.000
    C691     C        0.04340    0.64740    0.43190    1.000
    C692     C        0.88680    0.54290    0.28550    1.000
    C693     C        0.91170    0.57370    0.26220    1.000
    H344     H        0.92560    0.59230    0.28120    1.000
    C694     C        0.15610    0.81470    0.25630    1.000
    H345     H        0.17400    0.83110    0.23830    1.000
    C695     C        0.12860    0.78900    0.23150    1.000
    C696     C        0.87100    0.51860    0.20360    1.000
    H346     H        0.85700    0.50120    0.18300    1.000
    C697     C        0.15770    0.81660    0.30510    1.000
    C698     C        0.05070    0.70280    0.15950    1.000
    C699     C        0.04160    0.64540    0.48310    1.000
    H347     H        0.02380    0.66290    0.49960    1.000
    C700     C        0.00100    0.81600    0.21090    1.000
    C701     C        0.85910    0.51100    0.35670    1.000
    H348     H        0.85680    0.50940    0.39020    1.000
    C702     C        0.13060    0.79180    0.33240    1.000
    H349     H        0.13120    0.79270    0.36610    1.000
    C703     C        0.18820    0.84480    0.32920    1.000
    C704     C        0.86630    0.51510    0.25530    1.000
    C705     C        0.97550    0.78360    0.23130    1.000
    C706     C        0.10160    0.75940    0.15780    1.000
    H350     H        0.10070    0.75820    0.12410    1.000
    C707     C        0.10330    0.76640    0.30900    1.000
    H351     H        0.08420    0.75120    0.32710    1.000
    C708     C        0.06440    0.61970    0.50890    1.000
    H352     H        0.06130    0.61830    0.54240    1.000
    C709     C        0.04680    0.87880    0.17580    1.000
    C710     C        0.88170    0.53950    0.33670    1.000
    H353     H        0.89480    0.55780    0.35660    1.000
    C711     C        0.10290    0.94880    0.08090    1.000
    C712     C        0.12660    0.78590    0.17990    1.000
    H354     H        0.14320    0.80280    0.16110    1.000
    C713     C        0.02330    0.84280    0.24210    1.000
    H355     H        0.02370    0.83890    0.27540    1.000
    C714     C        0.00580    0.81850    0.16190    1.000
    H356     H        0.99390    0.80010    0.14120    1.000
    C715     C        0.03010    0.85140    0.14380    1.000
    C716     C        0.04470    0.87540    0.22170    1.000
    H357     H        0.05720    0.89410    0.24160    1.000
    C717     C        0.07370    0.91590    0.10640    1.000
    C718     C        0.05730    0.88930    0.07440    1.000
    H358     H        0.06190    0.89130    0.04110    1.000
    C719     C        0.03170    0.85690    0.09570    1.000
    H359     H        0.01650    0.84010    0.07540    1.000
    C720     C        0.07240    0.91240    0.15320    1.000
    H360     H        0.08690    0.93020    0.17290    1.000
    Cd31     Cd       0.00294    0.14372    0.61871    1.000
    Cd32     Cd       0.91089    0.24782    0.80317    1.000
    K16      K        0.96093    0.19495    0.71299    1.000
    O241     O        0.14712    0.04291    0.98880    1.000
    O242     O        0.02400    0.18260    0.68440    1.000
    O243     O        0.81080    0.94732    0.89270    1.000
    O244     O        0.97090    0.25286    0.70780    1.000
    O245     O        0.95600    0.10241    0.64890    1.000
    O246     O        0.98470    0.19428    0.78260    1.000
    O247     O        0.95890    0.21824    0.85190    1.000
    O248     O        0.10900    0.05640    0.05380    1.000
    O249     O        0.94990    0.13713    0.71770    1.000
    O250     O        0.21550    0.36300    0.80450    1.000
    O251     O        0.79170    0.92730    0.81890    1.000
    O252     O        0.95970    0.28976    0.77360    1.000
    O253     O        0.18680    0.34750    0.87520    1.000
    O254     O        0.05600    0.19710    0.61500    1.000
    O255     O        0.10100    0.45540    0.53940    1.000
    C721     C        0.09800    0.09580    0.93310    1.000
    H361     H        0.11740    0.07960    0.91680    1.000
    O256     O        0.12760    0.46680    0.61160    1.000
    C722     C        0.09410    0.09370    0.98340    1.000
    C723     C        0.81280    0.95010    0.84840    1.000
    C724     C        0.07230    0.12260    0.90760    1.000
    C725     C        0.11780    0.06330    0.01130    1.000
    C726     C        0.07240    0.12360    0.85590    1.000
    H362     H        0.09060    0.10650    0.83940    1.000
    C727     C        0.01590    0.17240    0.85600    1.000
    C728     C        0.83760    0.98200    0.82620    1.000
    C729     C        0.84220    0.98480    0.77630    1.000
    H363     H        0.82910    0.96640    0.75640    1.000
    C730     C        0.10360    0.26280    0.75780    1.000
    C731     C        0.04800    0.14750    0.83050    1.000
    H364     H        0.05090    0.14870    0.79700    1.000
    C732     C        0.89610    0.04770    0.68490    1.000
    H365     H        0.90090    0.04870    0.65170    1.000
    C733     C        0.01670    0.17280    0.90390    1.000
    H366     H        0.99890    0.19050    0.92010    1.000
    C734     C        0.07720    0.23390    0.68500    1.000
    C735     C        0.91480    0.07580    0.71460    1.000
    C736     C        0.07700    0.23510    0.73320    1.000
    H367     H        0.05960    0.21800    0.75080    1.000
    C737     C        0.98390    0.19730    0.82740    1.000
    C738     C        0.94220    0.10840    0.69240    1.000
    C739     C        0.04340    0.14740    0.93190    1.000
    C740     C        0.88680    0.04290    0.78550    1.000
    C741     C        0.91170    0.07370    0.76220    1.000
    H368     H        0.92560    0.09230    0.78120    1.000
    C742     C        0.15610    0.31470    0.75630    1.000
    H369     H        0.17400    0.33110    0.73830    1.000
    C743     C        0.12860    0.28900    0.73150    1.000
    C744     C        0.87100    0.01860    0.70360    1.000
    H370     H        0.85700    0.00120    0.68300    1.000
    C745     C        0.15770    0.31660    0.80510    1.000
    C746     C        0.05070    0.20280    0.65950    1.000
    C747     C        0.04160    0.14540    0.98310    1.000
    H371     H        0.02380    0.16290    0.99960    1.000
    C748     C        0.00100    0.31600    0.71090    1.000
    C749     C        0.85910    0.01100    0.85670    1.000
    H372     H        0.85680    0.00940    0.89020    1.000
    C750     C        0.13060    0.29180    0.83240    1.000
    H373     H        0.13120    0.29270    0.86610    1.000
    C751     C        0.18820    0.34480    0.82920    1.000
    C752     C        0.86630    0.01510    0.75530    1.000
    C753     C        0.97550    0.28360    0.73130    1.000
    C754     C        0.10160    0.25940    0.65780    1.000
    H374     H        0.10070    0.25820    0.62410    1.000
    C755     C        0.10330    0.26640    0.80900    1.000
    H375     H        0.08420    0.25120    0.82710    1.000
    C756     C        0.06440    0.11970    0.00890    1.000
    H376     H        0.06130    0.11830    0.04240    1.000
    C757     C        0.04680    0.37880    0.67580    1.000
    C758     C        0.88170    0.03950    0.83670    1.000
    H377     H        0.89480    0.05780    0.85660    1.000
    C759     C        0.10290    0.44880    0.58090    1.000
    C760     C        0.12660    0.28590    0.67990    1.000
    H378     H        0.14320    0.30280    0.66110    1.000
    C761     C        0.02330    0.34280    0.74210    1.000
    H379     H        0.02370    0.33890    0.77540    1.000
    C762     C        0.00580    0.31850    0.66190    1.000
    H380     H        0.99390    0.30010    0.64120    1.000
    C763     C        0.03010    0.35140    0.64380    1.000
    C764     C        0.04470    0.37540    0.72170    1.000
    H381     H        0.05720    0.39410    0.74160    1.000
    C765     C        0.07370    0.41590    0.60640    1.000
    C766     C        0.05730    0.38930    0.57440    1.000
    H382     H        0.06190    0.39130    0.54110    1.000
    C767     C        0.03170    0.35690    0.59570    1.000
    H383     H        0.01650    0.34010    0.57540    1.000
    C768     C        0.07240    0.41240    0.65320    1.000
    H384     H        0.08690    0.43020    0.67290    1.000
