# CIF file generated by openbabel 3.1.0, see https://openbabel.org
data_I
_chemical_name_common 'image0'
_cell_length_a 8.968
_cell_length_b 15.964
_cell_length_c 19.737
_cell_angle_alpha 77.56
_cell_angle_beta 85.31
_cell_angle_gamma 81.57
_space_group_name_H-M_alt 'P 1'
_space_group_name_Hall 'P 1'
loop_
    _symmetry_equiv_pos_as_xyz
    x,y,z
loop_
    _atom_site_label
    _atom_site_type_symbol
    _atom_site_fract_x
    _atom_site_fract_y
    _atom_site_fract_z
    _atom_site_occupancy
    Cu1      Cu       0.16269    0.91718    0.01937    1.000
    Cu2      Cu       0.30519    0.44284    0.67416    1.000
    Cl1      Cl       0.32715    0.96608    0.41715    1.000
    N1       N        0.07660    0.96831    0.92425    1.000
    N2       N        0.92730    0.00676    0.91350    1.000
    N3       N        0.03950    0.99189    0.81315    1.000
    N4       N        0.05390    0.00121    0.74026    1.000
    N5       N        0.38320    0.87546    0.00409    1.000
    N6       N        0.74180    0.69357    0.88807    1.000
    N7       N        0.74500    0.63020    0.84733    1.000
    N8       N        0.08690    0.48051    0.69952    1.000
    N9       N        0.05320    0.80614    0.05888    1.000
    N10      N        0.98320    0.52642    0.02456    1.000
    N11      N        0.45480    0.52455    0.62931    1.000
    N12      N        0.94940    0.52318    0.52130    1.000
    N13      N        0.40120    0.39394    0.77065    1.000
    N14      N        0.51630    0.46598    0.98179    1.000
    N15      N        0.32110    0.34190    0.62876    1.000
    C1       C        0.17800    0.96424    0.71758    1.000
    H1       H        0.25050    0.93340    0.74960    1.000
    C2       C        0.21060    0.96864    0.64308    1.000
    C3       C        0.33670    0.91620    0.62298    1.000
    H2       H        0.39850    0.88000    0.65750    1.000
    C4       C        0.37380    0.91550    0.55383    1.000
    H3       H        0.45960    0.87900    0.54060    1.000
    C5       C        0.28460    0.96862    0.50457    1.000
    C6       C        0.16230    0.02416    0.52236    1.000
    H4       H        0.10460    0.06270    0.48750    1.000
    C7       C        0.12500    0.02278    0.59235    1.000
    H5       H        0.03930    0.05960    0.60530    1.000
    C8       C        0.90890    0.01912    0.84683    1.000
    H6       H        0.81730    0.04360    0.82510    1.000
    C9       C        0.14000    0.96099    0.86341    1.000
    H7       H        0.24180    0.93740    0.85550    1.000
    C10      C        0.49310    0.90222    0.03333    1.000
    H8       H        0.46530    0.94050    0.06440    1.000
    C11      C        0.64460    0.87631    0.02014    1.000
    H9       H        0.71900    0.89820    0.04060    1.000
    C12      C        0.68680    0.81871    0.97723    1.000
    H10      H        0.79050    0.80090    0.96720    1.000
    C13      C        0.57540    0.78674    0.94851    1.000
    C14      C        0.42630    0.81863    0.96235    1.000
    H11      H        0.35000    0.79930    0.94120    1.000
    C15      C        0.60700    0.72087    0.90590    1.000
    H12      H        0.52560    0.69820    0.89140    1.000
    C16      C        0.87490    0.61496    0.81778    1.000
    H13      H        0.95380    0.64550    0.82460    1.000
    C17      C        0.90450    0.55133    0.77358    1.000
    C18      C        0.79910    0.49922    0.76472    1.000
    H14      H        0.70150    0.50450    0.78730    1.000
    C19      C        0.83790    0.43984    0.72278    1.000
    H15      H        0.76650    0.40450    0.71560    1.000
    C20      C        0.98190    0.43191    0.69113    1.000
    H16      H        0.00730    0.39060    0.66250    1.000
    C21      C        0.04520    0.53998    0.73946    1.000
    H17      H        0.11690    0.57630    0.74450    1.000
    C22      C        0.97540    0.79312    0.12058    1.000
    H18      H        0.96270    0.83770    0.14640    1.000
    C23      C        0.91300    0.71803    0.14846    1.000
    H19      H        0.85840    0.71180    0.19220    1.000
    C24      C        0.93110    0.65233    0.11200    1.000
    H20      H        0.89040    0.59990    0.13050    1.000
    C25      C        0.01050    0.66408    0.04697    1.000
    C26      C        0.06700    0.74235    0.02340    1.000
    H21      H        0.11900    0.75130    0.97910    1.000
    C27      C        0.03360    0.59917    0.00370    1.000
    H22      H        0.08660    0.61100    0.95970    1.000
    C28      C        0.46700    0.59600    0.65266    1.000
    H23      H        0.38830    0.61540    0.68320    1.000
    C29      C        0.58640    0.64295    0.63510    1.000
    H24      H        0.58880    0.69370    0.65260    1.000
    C30      C        0.70300    0.61502    0.59152    1.000
    H25      H        0.78750    0.64570    0.57910    1.000
    C31      C        0.69420    0.54092    0.56611    1.000
    C32      C        0.56660    0.49854    0.58566    1.000
    H26      H        0.55860    0.44910    0.56730    1.000
    C33      C        0.81660    0.50261    0.52361    1.000
    H27      H        0.79680    0.46220    0.49760    1.000
    C34      C        0.48240    0.31561    0.78687    1.000
    H28      H        0.48250    0.27650    0.75680    1.000
    C35      C        0.56600    0.28901    0.84539    1.000
    H29      H        0.62530    0.23370    0.85390    1.000
    C36      C        0.56270    0.34347    0.89140    1.000
    H30      H        0.61990    0.32660    0.93170    1.000
    C37      C        0.47320    0.42393    0.87730    1.000
    C38      C        0.39820    0.44586    0.81584    1.000
    H31      H        0.34080    0.50160    0.80510    1.000
    C39      C        0.45570    0.48530    0.92389    1.000
    H32      H        0.39800    0.54050    0.91030    1.000
    C40      C        0.33010    0.28263    0.60501    1.000
    C41      C        0.34420    0.20620    0.57445    1.000
    H33      H        0.44710    0.19520    0.55450    1.000
    H34      H        0.27230    0.21590    0.53780    1.000
    H35      H        0.32270    0.15610    0.61050    1.000
    Cu3      Cu       0.83731    0.08282    0.98063    1.000
    Cu4      Cu       0.69481    0.55716    0.32584    1.000
    Cl2      Cl       0.67285    0.03392    0.58285    1.000
    N16      N        0.92340    0.03169    0.07575    1.000
    N17      N        0.07270    0.99324    0.08650    1.000
    N18      N        0.96050    0.00811    0.18685    1.000
    N19      N        0.94610    0.99879    0.25974    1.000
    N20      N        0.61680    0.12454    0.99591    1.000
    N21      N        0.25820    0.30643    0.11193    1.000
    N22      N        0.25500    0.36980    0.15267    1.000
    N23      N        0.91310    0.51949    0.30048    1.000
    N24      N        0.94680    0.19386    0.94112    1.000
    N25      N        0.01680    0.47358    0.97544    1.000
    N26      N        0.54520    0.47545    0.37069    1.000
    N27      N        0.05060    0.47682    0.47870    1.000
    N28      N        0.59880    0.60606    0.22935    1.000
    N29      N        0.48370    0.53402    0.01821    1.000
    N30      N        0.67890    0.65810    0.37124    1.000
    C42      C        0.82200    0.03576    0.28242    1.000
    H36      H        0.74950    0.06660    0.25040    1.000
    C43      C        0.78940    0.03136    0.35692    1.000
    C44      C        0.66330    0.08380    0.37702    1.000
    H37      H        0.60150    0.12000    0.34250    1.000
    C45      C        0.62620    0.08450    0.44617    1.000
    H38      H        0.54040    0.12100    0.45940    1.000
    C46      C        0.71540    0.03138    0.49543    1.000
    C47      C        0.83770    0.97584    0.47764    1.000
    H39      H        0.89540    0.93730    0.51250    1.000
    C48      C        0.87500    0.97722    0.40765    1.000
    H40      H        0.96070    0.94040    0.39470    1.000
    C49      C        0.09110    0.98088    0.15317    1.000
    H41      H        0.18270    0.95640    0.17490    1.000
    C50      C        0.86000    0.03901    0.13659    1.000
    H42      H        0.75820    0.06260    0.14450    1.000
    C51      C        0.50690    0.09778    0.96667    1.000
    H43      H        0.53470    0.05950    0.93560    1.000
    C52      C        0.35540    0.12369    0.97986    1.000
    H44      H        0.28100    0.10180    0.95940    1.000
    C53      C        0.31320    0.18129    0.02277    1.000
    H45      H        0.20950    0.19910    0.03280    1.000
    C54      C        0.42460    0.21326    0.05149    1.000
    C55      C        0.57370    0.18137    0.03765    1.000
    H46      H        0.65000    0.20070    0.05880    1.000
    C56      C        0.39300    0.27913    0.09410    1.000
    H47      H        0.47440    0.30180    0.10860    1.000
    C57      C        0.12510    0.38504    0.18222    1.000
    H48      H        0.04620    0.35450    0.17540    1.000
    C58      C        0.09550    0.44867    0.22642    1.000
    C59      C        0.20090    0.50078    0.23528    1.000
    H49      H        0.29850    0.49550    0.21270    1.000
    C60      C        0.16210    0.56016    0.27722    1.000
    H50      H        0.23350    0.59550    0.28440    1.000
    C61      C        0.01810    0.56809    0.30887    1.000
    H51      H        0.99270    0.60940    0.33750    1.000
    C62      C        0.95480    0.46002    0.26054    1.000
    H52      H        0.88310    0.42370    0.25550    1.000
    C63      C        0.02460    0.20688    0.87942    1.000
    H53      H        0.03730    0.16230    0.85360    1.000
    C64      C        0.08700    0.28197    0.85154    1.000
    H54      H        0.14160    0.28820    0.80780    1.000
    C65      C        0.06890    0.34767    0.88800    1.000
    H55      H        0.10960    0.40010    0.86950    1.000
    C66      C        0.98950    0.33592    0.95303    1.000
    C67      C        0.93300    0.25765    0.97660    1.000
    H56      H        0.88100    0.24870    0.02090    1.000
    C68      C        0.96640    0.40083    0.99630    1.000
    H57      H        0.91340    0.38900    0.04030    1.000
    C69      C        0.53300    0.40400    0.34734    1.000
    H58      H        0.61170    0.38460    0.31680    1.000
    C70      C        0.41360    0.35705    0.36490    1.000
    H59      H        0.41120    0.30630    0.34740    1.000
    C71      C        0.29700    0.38498    0.40848    1.000
    H60      H        0.21250    0.35430    0.42090    1.000
    C72      C        0.30580    0.45908    0.43389    1.000
    C73      C        0.43340    0.50146    0.41434    1.000
    H61      H        0.44140    0.55090    0.43270    1.000
    C74      C        0.18340    0.49739    0.47639    1.000
    H62      H        0.20320    0.53780    0.50240    1.000
    C75      C        0.51760    0.68439    0.21313    1.000
    H63      H        0.51750    0.72350    0.24320    1.000
    C76      C        0.43400    0.71099    0.15461    1.000
    H64      H        0.37470    0.76630    0.14610    1.000
    C77      C        0.43730    0.65653    0.10860    1.000
    H65      H        0.38010    0.67340    0.06830    1.000
    C78      C        0.52680    0.57607    0.12270    1.000
    C79      C        0.60180    0.55414    0.18416    1.000
    H66      H        0.65920    0.49840    0.19490    1.000
    C80      C        0.54430    0.51470    0.07611    1.000
    H67      H        0.60200    0.45950    0.08970    1.000
    C81      C        0.66990    0.71737    0.39499    1.000
    C82      C        0.65580    0.79380    0.42555    1.000
    H68      H        0.55290    0.80480    0.44550    1.000
    H69      H        0.72770    0.78410    0.46220    1.000
    H70      H        0.67730    0.84390    0.38950    1.000
