# CIF file generated by openbabel 3.1.0, see https://openbabel.org
data_I
_chemical_name_common 'image0'
_cell_length_a 10.4883
_cell_length_b 11.2214
_cell_length_c 12.741
_cell_angle_alpha 100.986
_cell_angle_beta 110.352
_cell_angle_gamma 99.772
_space_group_name_H-M_alt 'P 1'
_space_group_name_Hall 'P 1'
loop_
    _symmetry_equiv_pos_as_xyz
    x,y,z
loop_
    _atom_site_label
    _atom_site_type_symbol
    _atom_site_fract_x
    _atom_site_fract_y
    _atom_site_fract_z
    _atom_site_occupancy
    Gd1      Gd       0.39343    0.45117    0.32424    1.000
    O1       O        0.62040    0.43660    0.32510    1.000
    O2       O        0.42930    0.27860    0.40360    1.000
    O3       O        0.65340    0.50260    0.50830    1.000
    O4       O        0.50050    0.32870    0.59650    1.000
    O5       O        0.31660    0.26430    0.15800    1.000
    O6       O        0.16490    0.29400    0.23480    1.000
    C1       C        0.70020    0.47360    0.43100    1.000
    C2       C        0.09740    0.10990    0.08030    1.000
    C3       C        0.47000    0.25360    0.49940    1.000
    C4       C        0.48330    0.12080    0.49750    1.000
    C5       C        0.94490    0.54370    0.57900    1.000
    H1       H        0.90750    0.57420    0.63380    1.000
    C6       C        0.48600    0.03990    0.39960    1.000
    C7       C        0.85530    0.48600    0.46590    1.000
    C8       C        0.49850    0.07910    0.59620    1.000
    H2       H        0.49820    0.13410    0.66280    1.000
    C9       C        0.90870    0.44100    0.38410    1.000
    C10      C        0.13640    0.02940    0.00500    1.000
    C11      C        0.19880    0.22820    0.16340    1.000
    C12      C        0.95800    0.07980    0.07270    1.000
    H3       H        0.92890    0.13470    0.12110    1.000
    N1       N        0.48080    0.08070    0.29700    1.000
    H4       H        0.48750    0.02980    0.23850    1.000
    H5       H        0.47100    0.15630    0.29330    1.000
    N2       N        0.83060    0.38240    0.27460    1.000
    H6       H        0.73850    0.36940    0.24860    1.000
    H7       H        0.87030    0.35620    0.22710    1.000
    N3       N        0.29800    0.01900    0.02100    1.000
    H8       H        0.31120    0.95140    0.98310    1.000
    H9       H        0.37140    0.08170    0.06850    1.000
    Gd2      Gd       0.60657    0.54883    0.67576    1.000
    O7       O        0.37960    0.56340    0.67490    1.000
    O8       O        0.57070    0.72140    0.59640    1.000
    O9       O        0.34660    0.49740    0.49170    1.000
    O10      O        0.49950    0.67130    0.40350    1.000
    O11      O        0.68340    0.73570    0.84200    1.000
    O12      O        0.83510    0.70600    0.76520    1.000
    C13      C        0.29980    0.52640    0.56900    1.000
    C14      C        0.90260    0.89010    0.91970    1.000
    C15      C        0.53000    0.74640    0.50060    1.000
    C16      C        0.51670    0.87920    0.50250    1.000
    C17      C        0.05510    0.45630    0.42100    1.000
    H10      H        0.09250    0.42580    0.36620    1.000
    C18      C        0.51400    0.96010    0.60040    1.000
    C19      C        0.14470    0.51400    0.53410    1.000
    C20      C        0.50150    0.92090    0.40380    1.000
    H11      H        0.50180    0.86590    0.33720    1.000
    C21      C        0.09130    0.55900    0.61590    1.000
    C22      C        0.86360    0.97060    0.99500    1.000
    C23      C        0.80120    0.77180    0.83660    1.000
    C24      C        0.04200    0.92020    0.92730    1.000
    H12      H        0.07110    0.86530    0.87890    1.000
    N4       N        0.51920    0.91930    0.70300    1.000
    H13      H        0.51250    0.97020    0.76150    1.000
    H14      H        0.52900    0.84370    0.70670    1.000
    N5       N        0.16940    0.61760    0.72540    1.000
    H15      H        0.26150    0.63060    0.75140    1.000
    H16      H        0.12970    0.64380    0.77290    1.000
    N6       N        0.70200    0.98100    0.97900    1.000
    H17      H        0.68880    0.04860    0.01690    1.000
    H18      H        0.62860    0.91830    0.93150    1.000
