# CIF file generated by openbabel 3.1.0, see https://openbabel.org
data_I
_chemical_name_common 'image0'
_cell_length_a 10.5778
_cell_length_b 19.6493
_cell_length_c 19.1872
_cell_angle_alpha 90
_cell_angle_beta 90
_cell_angle_gamma 90
_space_group_name_H-M_alt 'P 1'
_space_group_name_Hall 'P 1'
loop_
    _symmetry_equiv_pos_as_xyz
    x,y,z
loop_
    _atom_site_label
    _atom_site_type_symbol
    _atom_site_fract_x
    _atom_site_fract_y
    _atom_site_fract_z
    _atom_site_occupancy
    Zn1      Zn       0.61168    0.96894    0.53736    1.000
    C1       C        0.60210    0.97571    0.11868    1.000
    O1       O        0.35380    0.92831    0.47670    1.000
    O2       O        0.66070    0.95837    0.06462    1.000
    O3       O        0.51910    0.87920    0.52904    1.000
    O4       O        0.49660    0.00477    0.12068    1.000
    C2       C        0.21060    0.81087    0.49930    1.000
    H1       H        0.16550    0.85270    0.49810    1.000
    C3       C        0.66370    0.95813    0.18710    1.000
    C4       C        0.34200    0.81114    0.50047    1.000
    C5       C        0.41030    0.87842    0.50210    1.000
    C6       C        0.77980    0.92451    0.31267    1.000
    H2       H        0.81970    0.91290    0.14460    1.000
    N1       N        0.20500    0.04510    0.07020    1.000
    C7       C        0.11480    0.01830    0.02920    1.000
    H3       H        0.14050    0.99460    0.98850    1.000
    C8       C        0.98580    0.02330    0.04300    1.000
    H4       H        0.92480    0.00370    0.01270    1.000
    C9       C        0.94970    0.05830    0.10330    1.000
    H5       H        0.86290    0.06270    0.11510    1.000
    C10      C        0.16790    0.07880    0.12740    1.000
    C11      C        0.26930    0.10610    0.17510    1.000
    H6       H        0.30750    0.06840    0.20110    1.000
    H7       H        0.23190    0.13860    0.20780    1.000
    H8       H        0.33450    0.12890    0.14740    1.000
    C12      C        0.04030    0.08600    0.14490    1.000
    H9       H        0.01680    0.11020    0.18580    1.000
    C13      C        0.00800    0.05500    0.33210    1.000
    H10      H        0.93090    0.05550    0.30670    1.000
    C14      C        0.20660    0.00520    0.35860    1.000
    H11      H        0.26790    0.97070    0.35090    1.000
    C15      C        0.09690    0.00460    0.31990    1.000
    H12      H        0.08260    0.97060    0.28560    1.000
    N2       N        0.22960    0.05300    0.40680    1.000
    C16      C        0.03200    0.10420    0.38140    1.000
    H13      H        0.97210    0.13940    0.38940    1.000
    C17      C        0.14580    0.10240    0.41980    1.000
    C18      C        0.17630    0.15530    0.47240    1.000
    H14      H        0.26200    0.14780    0.49020    1.000
    H15      H        0.17130    0.20040    0.45080    1.000
    H16      H        0.11570    0.15260    0.51100    1.000
    Zn2      Zn       0.38832    0.03106    0.03736    1.000
    C19      C        0.39790    0.02429    0.61868    1.000
    O5       O        0.64620    0.07169    0.97670    1.000
    O6       O        0.33930    0.04163    0.56462    1.000
    O7       O        0.48090    0.12080    0.02904    1.000
    O8       O        0.50340    0.99523    0.62068    1.000
    C20      C        0.78940    0.18913    0.99930    1.000
    H17      H        0.83450    0.14730    0.99810    1.000
    C21      C        0.33630    0.04187    0.68710    1.000
    C22      C        0.65800    0.18886    0.00047    1.000
    C23      C        0.58970    0.12158    0.00210    1.000
    C24      C        0.22020    0.07549    0.81267    1.000
    H18      H        0.18030    0.08710    0.64460    1.000
    N3       N        0.79500    0.95490    0.57020    1.000
    C25      C        0.88520    0.98170    0.52920    1.000
    H19      H        0.85950    0.00540    0.48850    1.000
    C26      C        0.01420    0.97670    0.54300    1.000
    H20      H        0.07520    0.99630    0.51270    1.000
    C27      C        0.05030    0.94170    0.60330    1.000
    H21      H        0.13710    0.93730    0.61510    1.000
    C28      C        0.83210    0.92120    0.62740    1.000
    C29      C        0.73070    0.89390    0.67510    1.000
    H22      H        0.69250    0.93160    0.70110    1.000
    H23      H        0.76810    0.86140    0.70780    1.000
    H24      H        0.66550    0.87110    0.64740    1.000
    C30      C        0.95970    0.91400    0.64490    1.000
    H25      H        0.98320    0.88980    0.68580    1.000
    C31      C        0.99200    0.94500    0.83210    1.000
    H26      H        0.06910    0.94450    0.80670    1.000
    C32      C        0.79340    0.99480    0.85860    1.000
    H27      H        0.73210    0.02930    0.85090    1.000
    C33      C        0.90310    0.99540    0.81990    1.000
    H28      H        0.91740    0.02940    0.78560    1.000
    N4       N        0.77040    0.94700    0.90680    1.000
    C34      C        0.96800    0.89580    0.88140    1.000
    H29      H        0.02790    0.86060    0.88940    1.000
    C35      C        0.85420    0.89760    0.91980    1.000
    C36      C        0.82370    0.84470    0.97240    1.000
    H30      H        0.73800    0.85220    0.99020    1.000
    H31      H        0.82870    0.79960    0.95080    1.000
    H32      H        0.88430    0.84740    0.01100    1.000
    Zn3      Zn       0.38832    0.46894    0.96264    1.000
    C37      C        0.39790    0.47571    0.38132    1.000
    O9       O        0.64620    0.42831    0.02330    1.000
    O10      O        0.33930    0.45837    0.43538    1.000
    O11      O        0.48090    0.37920    0.97096    1.000
    O12      O        0.50340    0.50477    0.37932    1.000
    C38      C        0.78940    0.31087    0.00070    1.000
    H33      H        0.83450    0.35270    0.00190    1.000
    C39      C        0.33630    0.45813    0.31290    1.000
    C40      C        0.65800    0.31114    0.99953    1.000
    C41      C        0.58970    0.37842    0.99790    1.000
    C42      C        0.22020    0.42451    0.18733    1.000
    H34      H        0.18030    0.41290    0.35540    1.000
    N5       N        0.79500    0.54510    0.42980    1.000
    C43      C        0.88520    0.51830    0.47080    1.000
    H35      H        0.85950    0.49460    0.51150    1.000
    C44      C        0.01420    0.52330    0.45700    1.000
    H36      H        0.07520    0.50370    0.48730    1.000
    C45      C        0.05030    0.55830    0.39670    1.000
    H37      H        0.13710    0.56270    0.38490    1.000
    C46      C        0.83210    0.57880    0.37260    1.000
    C47      C        0.73070    0.60610    0.32490    1.000
    H38      H        0.69250    0.56840    0.29890    1.000
    H39      H        0.76810    0.63860    0.29220    1.000
    H40      H        0.66550    0.62890    0.35260    1.000
    C48      C        0.95970    0.58600    0.35510    1.000
    H41      H        0.98320    0.61020    0.31420    1.000
    C49      C        0.99200    0.55500    0.16790    1.000
    H42      H        0.06910    0.55550    0.19330    1.000
    C50      C        0.79340    0.50520    0.14140    1.000
    H43      H        0.73210    0.47070    0.14910    1.000
    C51      C        0.90310    0.50460    0.18010    1.000
    H44      H        0.91740    0.47060    0.21440    1.000
    N6       N        0.77040    0.55300    0.09320    1.000
    C52      C        0.96800    0.60420    0.11860    1.000
    H45      H        0.02790    0.63940    0.11060    1.000
    C53      C        0.85420    0.60240    0.08020    1.000
    C54      C        0.82370    0.65530    0.02760    1.000
    H46      H        0.73800    0.64780    0.00980    1.000
    H47      H        0.82870    0.70040    0.04920    1.000
    H48      H        0.88430    0.65260    0.98900    1.000
    Zn4      Zn       0.61168    0.53106    0.46264    1.000
    C55      C        0.60210    0.52429    0.88132    1.000
    O13      O        0.35380    0.57169    0.52330    1.000
    O14      O        0.66070    0.54163    0.93538    1.000
    O15      O        0.51910    0.62080    0.47096    1.000
    O16      O        0.49660    0.49523    0.87932    1.000
    C56      C        0.21060    0.68913    0.50070    1.000
    H49      H        0.16550    0.64730    0.50190    1.000
    C57      C        0.66370    0.54187    0.81290    1.000
    C58      C        0.34200    0.68886    0.49953    1.000
    C59      C        0.41030    0.62158    0.49790    1.000
    C60      C        0.77980    0.57549    0.68733    1.000
    H50      H        0.81970    0.58710    0.85540    1.000
    N7       N        0.20500    0.45490    0.92980    1.000
    C61      C        0.11480    0.48170    0.97080    1.000
    H51      H        0.14050    0.50540    0.01150    1.000
    C62      C        0.98580    0.47670    0.95700    1.000
    H52      H        0.92480    0.49630    0.98730    1.000
    C63      C        0.94970    0.44170    0.89670    1.000
    H53      H        0.86290    0.43730    0.88490    1.000
    C64      C        0.16790    0.42120    0.87260    1.000
    C65      C        0.26930    0.39390    0.82490    1.000
    H54      H        0.30750    0.43160    0.79890    1.000
    H55      H        0.23190    0.36140    0.79220    1.000
    H56      H        0.33450    0.37110    0.85260    1.000
    C66      C        0.04030    0.41400    0.85510    1.000
    H57      H        0.01680    0.38980    0.81420    1.000
    C67      C        0.00800    0.44500    0.66790    1.000
    H58      H        0.93090    0.44450    0.69330    1.000
    C68      C        0.20660    0.49480    0.64140    1.000
    H59      H        0.26790    0.52930    0.64910    1.000
    C69      C        0.09690    0.49540    0.68010    1.000
    H60      H        0.08260    0.52940    0.71440    1.000
    N8       N        0.22960    0.44700    0.59320    1.000
    C70      C        0.03200    0.39580    0.61860    1.000
    H61      H        0.97210    0.36060    0.61060    1.000
    C71      C        0.14580    0.39760    0.58020    1.000
    C72      C        0.17630    0.34470    0.52760    1.000
    H62      H        0.26200    0.35220    0.50980    1.000
    H63      H        0.17130    0.29960    0.54920    1.000
    H64      H        0.11570    0.34740    0.48900    1.000
    Zn5      Zn       0.38832    0.03106    0.46264    1.000
    C73      C        0.39790    0.02429    0.88132    1.000
    O17      O        0.64620    0.07169    0.52330    1.000
    O18      O        0.33930    0.04163    0.93538    1.000
    O19      O        0.48090    0.12080    0.47096    1.000
    O20      O        0.50340    0.99523    0.87932    1.000
    C74      C        0.78940    0.18913    0.50070    1.000
    H65      H        0.83450    0.14730    0.50190    1.000
    C75      C        0.33630    0.04187    0.81290    1.000
    C76      C        0.65800    0.18886    0.49953    1.000
    C77      C        0.58970    0.12158    0.49790    1.000
    C78      C        0.22020    0.07549    0.68733    1.000
    H66      H        0.18030    0.08710    0.85540    1.000
    N9       N        0.79500    0.95490    0.92980    1.000
    C79      C        0.88520    0.98170    0.97080    1.000
    H67      H        0.85950    0.00540    0.01150    1.000
    C80      C        0.01420    0.97670    0.95700    1.000
    H68      H        0.07520    0.99630    0.98730    1.000
    C81      C        0.05030    0.94170    0.89670    1.000
    H69      H        0.13710    0.93730    0.88490    1.000
    C82      C        0.83210    0.92120    0.87260    1.000
    C83      C        0.73070    0.89390    0.82490    1.000
    H70      H        0.69250    0.93160    0.79890    1.000
    H71      H        0.76810    0.86140    0.79220    1.000
    H72      H        0.66550    0.87110    0.85260    1.000
    C84      C        0.95970    0.91400    0.85510    1.000
    H73      H        0.98320    0.88980    0.81420    1.000
    C85      C        0.99200    0.94500    0.66790    1.000
    H74      H        0.06910    0.94450    0.69330    1.000
    C86      C        0.79340    0.99480    0.64140    1.000
    H75      H        0.73210    0.02930    0.64910    1.000
    C87      C        0.90310    0.99540    0.68010    1.000
    H76      H        0.91740    0.02940    0.71440    1.000
    N10      N        0.77040    0.94700    0.59320    1.000
    C88      C        0.96800    0.89580    0.61860    1.000
    H77      H        0.02790    0.86060    0.61060    1.000
    C89      C        0.85420    0.89760    0.58020    1.000
    C90      C        0.82370    0.84470    0.52760    1.000
    H78      H        0.73800    0.85220    0.50980    1.000
    H79      H        0.82870    0.79960    0.54920    1.000
    H80      H        0.88430    0.84740    0.48900    1.000
    Zn6      Zn       0.61168    0.96894    0.96264    1.000
    C91      C        0.60210    0.97571    0.38132    1.000
    O21      O        0.35380    0.92831    0.02330    1.000
    O22      O        0.66070    0.95837    0.43538    1.000
    O23      O        0.51910    0.87920    0.97096    1.000
    O24      O        0.49660    0.00477    0.37932    1.000
    C92      C        0.21060    0.81087    0.00070    1.000
    H81      H        0.16550    0.85270    0.00190    1.000
    C93      C        0.66370    0.95813    0.31290    1.000
    C94      C        0.34200    0.81114    0.99953    1.000
    C95      C        0.41030    0.87842    0.99790    1.000
    C96      C        0.77980    0.92451    0.18733    1.000
    H82      H        0.81970    0.91290    0.35540    1.000
    N11      N        0.20500    0.04510    0.42980    1.000
    C97      C        0.11480    0.01830    0.47080    1.000
    H83      H        0.14050    0.99460    0.51150    1.000
    C98      C        0.98580    0.02330    0.45700    1.000
    H84      H        0.92480    0.00370    0.48730    1.000
    C99      C        0.94970    0.05830    0.39670    1.000
    H85      H        0.86290    0.06270    0.38490    1.000
    C100     C        0.16790    0.07880    0.37260    1.000
    C101     C        0.26930    0.10610    0.32490    1.000
    H86      H        0.30750    0.06840    0.29890    1.000
    H87      H        0.23190    0.13860    0.29220    1.000
    H88      H        0.33450    0.12890    0.35260    1.000
    C102     C        0.04030    0.08600    0.35510    1.000
    H89      H        0.01680    0.11020    0.31420    1.000
    C103     C        0.00800    0.05500    0.16790    1.000
    H90      H        0.93090    0.05550    0.19330    1.000
    C104     C        0.20660    0.00520    0.14140    1.000
    H91      H        0.26790    0.97070    0.14910    1.000
    C105     C        0.09690    0.00460    0.18010    1.000
    H92      H        0.08260    0.97060    0.21440    1.000
    N12      N        0.22960    0.05300    0.09320    1.000
    C106     C        0.03200    0.10420    0.11860    1.000
    H93      H        0.97210    0.13940    0.11060    1.000
    C107     C        0.14580    0.10240    0.08020    1.000
    C108     C        0.17630    0.15530    0.02760    1.000
    H94      H        0.26200    0.14780    0.00980    1.000
    H95      H        0.17130    0.20040    0.04920    1.000
    H96      H        0.11570    0.15260    0.98900    1.000
    Zn7      Zn       0.61168    0.53106    0.03736    1.000
    C109     C        0.60210    0.52429    0.61868    1.000
    O25      O        0.35380    0.57169    0.97670    1.000
    O26      O        0.66070    0.54163    0.56462    1.000
    O27      O        0.51910    0.62080    0.02904    1.000
    O28      O        0.49660    0.49523    0.62068    1.000
    C110     C        0.21060    0.68913    0.99930    1.000
    H97      H        0.16550    0.64730    0.99810    1.000
    C111     C        0.66370    0.54187    0.68710    1.000
    C112     C        0.34200    0.68886    0.00047    1.000
    C113     C        0.41030    0.62158    0.00210    1.000
    C114     C        0.77980    0.57549    0.81267    1.000
    H98      H        0.81970    0.58710    0.64460    1.000
    N13      N        0.20500    0.45490    0.57020    1.000
    C115     C        0.11480    0.48170    0.52920    1.000
    H99      H        0.14050    0.50540    0.48850    1.000
    C116     C        0.98580    0.47670    0.54300    1.000
    H100     H        0.92480    0.49630    0.51270    1.000
    C117     C        0.94970    0.44170    0.60330    1.000
    H101     H        0.86290    0.43730    0.61510    1.000
    C118     C        0.16790    0.42120    0.62740    1.000
    C119     C        0.26930    0.39390    0.67510    1.000
    H102     H        0.30750    0.43160    0.70110    1.000
    H103     H        0.23190    0.36140    0.70780    1.000
    H104     H        0.33450    0.37110    0.64740    1.000
    C120     C        0.04030    0.41400    0.64490    1.000
    H105     H        0.01680    0.38980    0.68580    1.000
    C121     C        0.00800    0.44500    0.83210    1.000
    H106     H        0.93090    0.44450    0.80670    1.000
    C122     C        0.20660    0.49480    0.85860    1.000
    H107     H        0.26790    0.52930    0.85090    1.000
    C123     C        0.09690    0.49540    0.81990    1.000
    H108     H        0.08260    0.52940    0.78560    1.000
    N14      N        0.22960    0.44700    0.90680    1.000
    C124     C        0.03200    0.39580    0.88140    1.000
    H109     H        0.97210    0.36060    0.88940    1.000
    C125     C        0.14580    0.39760    0.91980    1.000
    C126     C        0.17630    0.34470    0.97240    1.000
    H110     H        0.26200    0.35220    0.99020    1.000
    H111     H        0.17130    0.29960    0.95080    1.000
    H112     H        0.11570    0.34740    0.01100    1.000
    Zn8      Zn       0.38832    0.46894    0.53736    1.000
    C127     C        0.39790    0.47571    0.11868    1.000
    O29      O        0.64620    0.42831    0.47670    1.000
    O30      O        0.33930    0.45837    0.06462    1.000
    O31      O        0.48090    0.37920    0.52904    1.000
    O32      O        0.50340    0.50477    0.12068    1.000
    C128     C        0.78940    0.31087    0.49930    1.000
    H113     H        0.83450    0.35270    0.49810    1.000
    C129     C        0.33630    0.45813    0.18710    1.000
    C130     C        0.65800    0.31114    0.50047    1.000
    C131     C        0.58970    0.37842    0.50210    1.000
    C132     C        0.22020    0.42451    0.31267    1.000
    H114     H        0.18030    0.41290    0.14460    1.000
    N15      N        0.79500    0.54510    0.07020    1.000
    C133     C        0.88520    0.51830    0.02920    1.000
    H115     H        0.85950    0.49460    0.98850    1.000
    C134     C        0.01420    0.52330    0.04300    1.000
    H116     H        0.07520    0.50370    0.01270    1.000
    C135     C        0.05030    0.55830    0.10330    1.000
    H117     H        0.13710    0.56270    0.11510    1.000
    C136     C        0.83210    0.57880    0.12740    1.000
    C137     C        0.73070    0.60610    0.17510    1.000
    H118     H        0.69250    0.56840    0.20110    1.000
    H119     H        0.76810    0.63860    0.20780    1.000
    H120     H        0.66550    0.62890    0.14740    1.000
    C138     C        0.95970    0.58600    0.14490    1.000
    H121     H        0.98320    0.61020    0.18580    1.000
    C139     C        0.99200    0.55500    0.33210    1.000
    H122     H        0.06910    0.55550    0.30670    1.000
    C140     C        0.79340    0.50520    0.35860    1.000
    H123     H        0.73210    0.47070    0.35090    1.000
    C141     C        0.90310    0.50460    0.31990    1.000
    H124     H        0.91740    0.47060    0.28560    1.000
    N16      N        0.77040    0.55300    0.40680    1.000
    C142     C        0.96800    0.60420    0.38140    1.000
    H125     H        0.02790    0.63940    0.38940    1.000
    C143     C        0.85420    0.60240    0.41980    1.000
    C144     C        0.82370    0.65530    0.47240    1.000
    H126     H        0.73800    0.64780    0.49020    1.000
    H127     H        0.82870    0.70040    0.45080    1.000
    H128     H        0.88430    0.65260    0.51100    1.000
    C145     C        0.60680    0.97530    0.25000    1.000
    H129     H        0.52840    0.99890    0.25000    1.000
    C146     C        0.83650    0.90820    0.25000    1.000
    H130     H        0.91580    0.88540    0.25000    1.000
    C147     C        0.39320    0.02470    0.75000    1.000
    H131     H        0.47160    0.00110    0.75000    1.000
    C148     C        0.16350    0.09180    0.75000    1.000
    H132     H        0.08420    0.11460    0.75000    1.000
    C149     C        0.39320    0.47530    0.25000    1.000
    H133     H        0.47160    0.49890    0.25000    1.000
    C150     C        0.16350    0.40820    0.25000    1.000
    H134     H        0.08420    0.38540    0.25000    1.000
    C151     C        0.60680    0.52470    0.75000    1.000
    H135     H        0.52840    0.50110    0.75000    1.000
    C152     C        0.83650    0.59180    0.75000    1.000
    H136     H        0.91580    0.61460    0.75000    1.000
    C153     C        0.14530    0.75000    0.50000    1.000
    H137     H        0.05550    0.75000    0.50000    1.000
    C154     C        0.40740    0.75000    0.50000    1.000
    H138     H        0.49730    0.75000    0.50000    1.000
    C155     C        0.85470    0.25000    0.00000    1.000
    H139     H        0.94450    0.25000    0.00000    1.000
    C156     C        0.59260    0.25000    0.00000    1.000
    H140     H        0.50270    0.25000    0.00000    1.000
    C157     C        0.85470    0.25000    0.50000    1.000
    H141     H        0.94450    0.25000    0.50000    1.000
    C158     C        0.59260    0.25000    0.50000    1.000
    H142     H        0.50270    0.25000    0.50000    1.000
    C159     C        0.14530    0.75000    0.00000    1.000
    H143     H        0.05550    0.75000    0.00000    1.000
    C160     C        0.40740    0.75000    0.00000    1.000
    H144     H        0.49730    0.75000    0.00000    1.000
