# CIF file generated by openbabel 3.1.0, see https://openbabel.org
data_I
_chemical_name_common 'image0'
_cell_length_a 25.953
_cell_length_b 11.015
_cell_length_c 13.246
_cell_angle_alpha 90
_cell_angle_beta 119.16
_cell_angle_gamma 90
_space_group_name_H-M_alt 'P 1'
_space_group_name_Hall 'P 1'
loop_
    _symmetry_equiv_pos_as_xyz
    x,y,z
loop_
    _atom_site_label
    _atom_site_type_symbol
    _atom_site_fract_x
    _atom_site_fract_y
    _atom_site_fract_z
    _atom_site_occupancy
    O1       O        0.42600    0.13700    0.81800    1.000
    O2       O        0.43400    0.13900    0.07000    1.000
    O3       O        0.40700    0.36800    0.92400    1.000
    O4       O        0.51100    0.35100    0.17000    1.000
    O5       O        0.39900    0.37000    0.20300    1.000
    O6       O        0.43400    0.22600    0.32000    1.000
    O7       O        0.46700    0.18000    0.63900    1.000
    O8       O        0.40500    0.34000    0.63600    1.000
    C1       C        0.40600    0.31700    0.29500    1.000
    C2       C        0.40100    0.37600    0.38500    1.000
    C3       C        0.44700    0.36600    0.50400    1.000
    C4       C        0.43600    0.28800    0.58900    1.000
    O9       O        0.92600    0.63700    0.81800    1.000
    O10      O        0.93400    0.63900    0.07000    1.000
    O11      O        0.90700    0.86800    0.92400    1.000
    O12      O        0.01100    0.85100    0.17000    1.000
    O13      O        0.89900    0.87000    0.20300    1.000
    O14      O        0.93400    0.72600    0.32000    1.000
    O15      O        0.96700    0.68000    0.63900    1.000
    O16      O        0.90500    0.84000    0.63600    1.000
    C5       C        0.90600    0.81700    0.29500    1.000
    C6       C        0.90100    0.87600    0.38500    1.000
    C7       C        0.94700    0.86600    0.50400    1.000
    C8       C        0.93600    0.78800    0.58900    1.000
    O17      O        0.57400    0.13700    0.18200    1.000
    O18      O        0.56600    0.13900    0.93000    1.000
    O19      O        0.59300    0.36800    0.07600    1.000
    O20      O        0.48900    0.35100    0.83000    1.000
    O21      O        0.60100    0.37000    0.79700    1.000
    O22      O        0.56600    0.22600    0.68000    1.000
    O23      O        0.53300    0.18000    0.36100    1.000
    O24      O        0.59500    0.34000    0.36400    1.000
    C9       C        0.59400    0.31700    0.70500    1.000
    C10      C        0.59900    0.37600    0.61500    1.000
    C11      C        0.55300    0.36600    0.49600    1.000
    C12      C        0.56400    0.28800    0.41100    1.000
    O25      O        0.07400    0.63700    0.18200    1.000
    O26      O        0.06600    0.63900    0.93000    1.000
    O27      O        0.09300    0.86800    0.07600    1.000
    O28      O        0.98900    0.85100    0.83000    1.000
    O29      O        0.10100    0.87000    0.79700    1.000
    O30      O        0.06600    0.72600    0.68000    1.000
    O31      O        0.03300    0.68000    0.36100    1.000
    O32      O        0.09500    0.84000    0.36400    1.000
    C13      C        0.09400    0.81700    0.70500    1.000
    C14      C        0.09900    0.87600    0.61500    1.000
    C15      C        0.05300    0.86600    0.49600    1.000
    C16      C        0.06400    0.78800    0.41100    1.000
    O33      O        0.57400    0.86300    0.18200    1.000
    O34      O        0.56600    0.86100    0.93000    1.000
    O35      O        0.59300    0.63200    0.07600    1.000
    O36      O        0.48900    0.64900    0.83000    1.000
    O37      O        0.60100    0.63000    0.79700    1.000
    O38      O        0.56600    0.77400    0.68000    1.000
    O39      O        0.53300    0.82000    0.36100    1.000
    O40      O        0.59500    0.66000    0.36400    1.000
    C17      C        0.59400    0.68300    0.70500    1.000
    C18      C        0.59900    0.62400    0.61500    1.000
    C19      C        0.55300    0.63400    0.49600    1.000
    C20      C        0.56400    0.71200    0.41100    1.000
    O41      O        0.07400    0.36300    0.18200    1.000
    O42      O        0.06600    0.36100    0.93000    1.000
    O43      O        0.09300    0.13200    0.07600    1.000
    O44      O        0.98900    0.14900    0.83000    1.000
    O45      O        0.10100    0.13000    0.79700    1.000
    O46      O        0.06600    0.27400    0.68000    1.000
    O47      O        0.03300    0.32000    0.36100    1.000
    O48      O        0.09500    0.16000    0.36400    1.000
    C21      C        0.09400    0.18300    0.70500    1.000
    C22      C        0.09900    0.12400    0.61500    1.000
    C23      C        0.05300    0.13400    0.49600    1.000
    C24      C        0.06400    0.21200    0.41100    1.000
    O49      O        0.42600    0.86300    0.81800    1.000
    O50      O        0.43400    0.86100    0.07000    1.000
    O51      O        0.40700    0.63200    0.92400    1.000
    O52      O        0.51100    0.64900    0.17000    1.000
    O53      O        0.39900    0.63000    0.20300    1.000
    O54      O        0.43400    0.77400    0.32000    1.000
    O55      O        0.46700    0.82000    0.63900    1.000
    O56      O        0.40500    0.66000    0.63600    1.000
    C25      C        0.40600    0.68300    0.29500    1.000
    C26      C        0.40100    0.62400    0.38500    1.000
    C27      C        0.44700    0.63400    0.50400    1.000
    C28      C        0.43600    0.71200    0.58900    1.000
    O57      O        0.92600    0.36300    0.81800    1.000
    O58      O        0.93400    0.36100    0.07000    1.000
    O59      O        0.90700    0.13200    0.92400    1.000
    O60      O        0.01100    0.14900    0.17000    1.000
    O61      O        0.89900    0.13000    0.20300    1.000
    O62      O        0.93400    0.27400    0.32000    1.000
    O63      O        0.96700    0.32000    0.63900    1.000
    O64      O        0.90500    0.16000    0.63600    1.000
    C29      C        0.90600    0.18300    0.29500    1.000
    C30      C        0.90100    0.12400    0.38500    1.000
    C31      C        0.94700    0.13400    0.50400    1.000
    C32      C        0.93600    0.21200    0.58900    1.000
    Eu1      Eu       0.50000    0.24080    0.00000    1.000
    Eu2      Eu       0.00000    0.74080    0.00000    1.000
    Eu3      Eu       0.50000    0.75920    0.00000    1.000
    Eu4      Eu       0.00000    0.25920    0.00000    1.000
    Eu5      Eu       0.49370    0.00000    0.79280    1.000
    Eu6      Eu       0.38480    0.00000    0.90220    1.000
    O65      O        0.56700    0.00000    0.74300    1.000
    O66      O        0.36200    0.00000    0.07300    1.000
    C33      C        0.62200    0.00000    0.81600    1.000
    Eu7      Eu       0.99370    0.50000    0.79280    1.000
    Eu8      Eu       0.88480    0.50000    0.90220    1.000
    O67      O        0.06700    0.50000    0.74300    1.000
    O68      O        0.86200    0.50000    0.07300    1.000
    C34      C        0.12200    0.50000    0.81600    1.000
    Eu9      Eu       0.50630    0.00000    0.20720    1.000
    Eu10     Eu       0.61520    0.00000    0.09780    1.000
    O69      O        0.43300    0.00000    0.25700    1.000
    O70      O        0.63800    0.00000    0.92700    1.000
    C35      C        0.37800    0.00000    0.18400    1.000
    Eu11     Eu       0.00630    0.50000    0.20720    1.000
    Eu12     Eu       0.11520    0.50000    0.09780    1.000
    O71      O        0.93300    0.50000    0.25700    1.000
    O72      O        0.13800    0.50000    0.92700    1.000
    C36      C        0.87800    0.50000    0.18400    1.000
    Eu13     Eu       0.42120    0.50000    0.08290    1.000
    Eu14     Eu       0.40640    0.50000    0.77340    1.000
    O73      O        0.31300    0.50000    0.98500    1.000
    O74      O        0.23500    0.50000    0.01300    1.000
    C37      C        0.25600    0.50000    0.94400    1.000
    C38      C        0.22100    0.50000    0.82600    1.000
    C39      C        0.16300    0.50000    0.76900    1.000
    Eu15     Eu       0.92120    0.00000    0.08290    1.000
    Eu16     Eu       0.90640    0.00000    0.77340    1.000
    O75      O        0.81300    0.00000    0.98500    1.000
    O76      O        0.73500    0.00000    0.01300    1.000
    C40      C        0.75600    0.00000    0.94400    1.000
    C41      C        0.72100    0.00000    0.82600    1.000
    C42      C        0.66300    0.00000    0.76900    1.000
    Eu17     Eu       0.57880    0.50000    0.91710    1.000
    Eu18     Eu       0.59360    0.50000    0.22660    1.000
    O77      O        0.68700    0.50000    0.01500    1.000
    O78      O        0.76500    0.50000    0.98700    1.000
    C43      C        0.74400    0.50000    0.05600    1.000
    C44      C        0.77900    0.50000    0.17400    1.000
    C45      C        0.83700    0.50000    0.23100    1.000
    Eu19     Eu       0.07880    0.00000    0.91710    1.000
    Eu20     Eu       0.09360    0.00000    0.22660    1.000
    O79      O        0.18700    0.00000    0.01500    1.000
    O80      O        0.26500    0.00000    0.98700    1.000
    C46      C        0.24400    0.00000    0.05600    1.000
    C47      C        0.27900    0.00000    0.17400    1.000
    C48      C        0.33700    0.00000    0.23100    1.000
    O81      O        0.50000    0.50000    0.00000    1.000
    O82      O        0.00000    0.00000    0.00000    1.000
    O83      O        0.50000    0.00000    0.00000    1.000
    O84      O        0.00000    0.50000    0.00000    1.000
