# CIF file generated by openbabel 3.1.0, see https://openbabel.org
data_I
_chemical_name_common 'image0'
_cell_length_a 7.3087
_cell_length_b 14.564
_cell_length_c 6.8079
_cell_angle_alpha 91.601
_cell_angle_beta 93.717
_cell_angle_gamma 78.154
_space_group_name_H-M_alt 'P 1'
_space_group_name_Hall 'P 1'
loop_
    _symmetry_equiv_pos_as_xyz
    x,y,z
loop_
    _atom_site_label
    _atom_site_type_symbol
    _atom_site_fract_x
    _atom_site_fract_y
    _atom_site_fract_z
    _atom_site_occupancy
    Ce1      Ce       0.75780    0.49960    0.17530    1.000
    P1       P        0.79360    0.42900    0.70410    1.000
    O1       O        0.93530    0.46110    0.85370    1.000
    O2       O        0.60280    0.44530    0.79000    1.000
    O3       O        0.78600    0.47840    0.50880    1.000
    C1       C        0.86900    0.30610    0.66500    1.000
    N1       N        0.84900    0.22630    0.78800    1.000
    C2       C        0.84600    0.14300    0.65700    1.000
    C3       C        0.02000    0.07040    0.72500    1.000
    C4       C        0.97800    0.04110    0.92710    1.000
    C5       C        0.98300    0.12730    0.05830    1.000
    C6       C        0.02100    0.20220    0.92400    1.000
    S1       S        0.51700    0.70320    0.85600    1.000
    O4       O        0.47600    0.78890    0.96600    1.000
    O5       O        0.56500    0.72780    0.66600    1.000
    O6       O        0.66100    0.64660    0.99000    1.000
    O7       O        0.34500    0.66800    0.83400    1.000
    Ce2      Ce       0.24220    0.50040    0.82470    1.000
    P2       P        0.20640    0.57100    0.29590    1.000
    O8       O        0.06470    0.53890    0.14630    1.000
    O9       O        0.39720    0.55470    0.21000    1.000
    O10      O        0.21400    0.52160    0.49120    1.000
    C7       C        0.13100    0.69390    0.33500    1.000
    N2       N        0.15100    0.77370    0.21200    1.000
    C8       C        0.15400    0.85700    0.34300    1.000
    C9       C        0.98000    0.92960    0.27500    1.000
    C10      C        0.02200    0.95890    0.07290    1.000
    C11      C        0.01700    0.87270    0.94170    1.000
    C12      C        0.97900    0.79780    0.07600    1.000
    S2       S        0.48300    0.29680    0.14400    1.000
    O11      O        0.52400    0.21110    0.03400    1.000
    O12      O        0.43500    0.27220    0.33400    1.000
    O13      O        0.33900    0.35340    0.01000    1.000
    O14      O        0.65500    0.33200    0.16600    1.000
