# CIF file generated by openbabel 3.1.0, see https://openbabel.org
data_I
_chemical_name_common 'ZELROZ_clean5b'
_cell_length_a 17.1227
_cell_length_b 17.1227
_cell_length_c 17.1227
_cell_angle_alpha 90
_cell_angle_beta 90
_cell_angle_gamma 90
_space_group_name_H-M_alt 'P 1'
_space_group_name_Hall 'P 1'
loop_
    _symmetry_equiv_pos_as_xyz
    x,y,z
loop_
    _atom_site_label
    _atom_site_type_symbol
    _atom_site_fract_x
    _atom_site_fract_y
    _atom_site_fract_z
    _atom_site_occupancy
    Zn1      Zn       0.56533    0.43467    0.43467    1.000
    Zn2      Zn       0.43467    0.56533    0.43467    1.000
    Zn3      Zn       0.43467    0.43467    0.56533    1.000
    Zn4      Zn       0.56533    0.56533    0.56533    1.000
    H5       H        0.79621    0.58474    0.58474    1.000
    H6       H        0.92277    0.62871    0.62871    1.000
    H7       H        0.20379    0.41526    0.58474    1.000
    H8       H        0.02813    0.44024    0.64619    1.000
    H9       H        0.20379    0.58474    0.41526    1.000
    H10      H        0.79621    0.41526    0.41526    1.000
    H11      H        0.58474    0.79621    0.58474    1.000
    H12      H        0.55268    0.99642    0.62753    1.000
    H13      H        0.58474    0.20379    0.41526    1.000
    H14      H        0.41526    0.20379    0.58474    1.000
    H15      H        0.39494    0.07132    0.64617    1.000
    H16      H        0.41526    0.79621    0.41526    1.000
    H17      H        0.58474    0.58474    0.79621    1.000
    H18      H        0.41526    0.58474    0.20379    1.000
    H19      H        0.39494    0.64617    0.07132    1.000
    H20      H        0.58474    0.41526    0.20379    1.000
    H21      H        0.41526    0.41526    0.79621    1.000
    H22      H        0.39911    0.44022    0.01506    1.000
    C23      C        0.83030    0.54430    0.54430    1.000
    C24      C        0.91120    0.54510    0.54510    1.000
    C25      C        0.16970    0.45570    0.54430    1.000
    C26      C        0.08880    0.45490    0.54510    1.000
    C27      C        0.16970    0.54430    0.45570    1.000
    C28      C        0.08880    0.54510    0.45490    1.000
    C29      C        0.83030    0.45570    0.45570    1.000
    C30      C        0.91120    0.45490    0.45490    1.000
    C31      C        0.54430    0.83030    0.54430    1.000
    C32      C        0.54510    0.91120    0.54510    1.000
    C33      C        0.54430    0.16970    0.45570    1.000
    C34      C        0.54510    0.08880    0.45490    1.000
    C35      C        0.45570    0.16970    0.54430    1.000
    C36      C        0.45490    0.08880    0.54510    1.000
    C37      C        0.45570    0.83030    0.45570    1.000
    C38      C        0.45490    0.91120    0.45490    1.000
    C39      C        0.54430    0.54430    0.83030    1.000
    C40      C        0.54510    0.54510    0.91120    1.000
    C41      C        0.45570    0.54430    0.16970    1.000
    C42      C        0.45490    0.54510    0.08880    1.000
    C43      C        0.54430    0.45570    0.16970    1.000
    C44      C        0.54510    0.45490    0.08880    1.000
    C45      C        0.45570    0.45570    0.83030    1.000
    C46      C        0.45490    0.45490    0.91120    1.000
    C47      C        0.71150    0.50000    0.50000    1.000
    C48      C        0.78970    0.50000    0.50000    1.000
    C49      C        0.95870    0.50000    0.50000    1.000
    C50      C        0.28850    0.50000    0.50000    1.000
    C51      C        0.21030    0.50000    0.50000    1.000
    C52      C        0.04130    0.50000    0.50000    1.000
    C53      C        0.50000    0.71150    0.50000    1.000
    C54      C        0.50000    0.78970    0.50000    1.000
    C55      C        0.50000    0.95870    0.50000    1.000
    C56      C        0.50000    0.28850    0.50000    1.000
    C57      C        0.50000    0.21030    0.50000    1.000
    C58      C        0.50000    0.04130    0.50000    1.000
    C59      C        0.50000    0.50000    0.71150    1.000
    C60      C        0.50000    0.50000    0.78970    1.000
    C61      C        0.50000    0.50000    0.95870    1.000
    C62      C        0.50000    0.50000    0.28850    1.000
    C63      C        0.50000    0.50000    0.21030    1.000
    C64      C        0.50000    0.50000    0.04130    1.000
    O65      O        0.50000    0.50000    0.50000    1.000
    O66      O        0.67520    0.45380    0.45380    1.000
    O67      O        0.95900    0.59070    0.59070    1.000
    O68      O        0.32480    0.54620    0.45380    1.000
    O69      O        0.04100    0.40930    0.59070    1.000
    O70      O        0.32480    0.45380    0.54620    1.000
    O71      O        0.67520    0.54620    0.54620    1.000
    O72      O        0.45380    0.67520    0.45380    1.000
    O73      O        0.59070    0.95900    0.59070    1.000
    O74      O        0.45380    0.32480    0.54620    1.000
    O75      O        0.54620    0.32480    0.45380    1.000
    O76      O        0.40930    0.04100    0.59070    1.000
    O77      O        0.54620    0.67520    0.54620    1.000
    O78      O        0.45380    0.45380    0.67520    1.000
    O79      O        0.54620    0.45380    0.32480    1.000
    O80      O        0.40930    0.59070    0.04100    1.000
    O81      O        0.45380    0.54620    0.32480    1.000
    O82      O        0.54620    0.54620    0.67520    1.000
    O83      O        0.40930    0.40930    0.95900    1.000
    H84      H        0.05632    0.58620    0.41380    1.000
    H85      H        0.94368    0.41380    0.41380    1.000
    H86      H        0.58620    0.05632    0.41380    1.000
    H87      H        0.41380    0.94368    0.41380    1.000
    H88      H        0.58620    0.58620    0.94368    1.000
    H89      H        0.58620    0.41380    0.05632    1.000
