# CIF file generated by openbabel 3.1.0, see https://openbabel.org
data_I
_chemical_name_common 'image0'
_cell_length_a 10.0812
_cell_length_b 10.0812
_cell_length_c 6.199
_cell_angle_alpha 90
_cell_angle_beta 90
_cell_angle_gamma 90
_space_group_name_H-M_alt 'P 1'
_space_group_name_Hall 'P 1'
loop_
    _symmetry_equiv_pos_as_xyz
    x,y,z
loop_
    _atom_site_label
    _atom_site_type_symbol
    _atom_site_fract_x
    _atom_site_fract_y
    _atom_site_fract_z
    _atom_site_occupancy
    C1       C        0.00310    0.09380    0.64930    1.000
    H1       H        0.00180    0.15790    0.75700    1.000
    C2       C        0.49690    0.40620    0.64930    1.000
    H2       H        0.49820    0.34210    0.75700    1.000
    C3       C        0.40620    0.00310    0.64930    1.000
    H3       H        0.34210    0.00180    0.75700    1.000
    C4       C        0.09380    0.49690    0.64930    1.000
    H4       H        0.15790    0.49820    0.75700    1.000
    C5       C        0.49690    0.09380    0.35070    1.000
    H5       H        0.49820    0.15790    0.24300    1.000
    C6       C        0.00310    0.40620    0.35070    1.000
    H6       H        0.00180    0.34210    0.24300    1.000
    C7       C        0.09380    0.00310    0.35070    1.000
    H7       H        0.15790    0.00180    0.24300    1.000
    C8       C        0.40620    0.49690    0.35070    1.000
    H8       H        0.34210    0.49820    0.24300    1.000
    C9       C        0.99690    0.90620    0.35070    1.000
    H9       H        0.99820    0.84210    0.24300    1.000
    C10      C        0.50310    0.59380    0.35070    1.000
    H10      H        0.50180    0.65790    0.24300    1.000
    C11      C        0.59380    0.99690    0.35070    1.000
    H11      H        0.65790    0.99820    0.24300    1.000
    C12      C        0.90620    0.50310    0.35070    1.000
    H12      H        0.84210    0.50180    0.24300    1.000
    C13      C        0.50310    0.90620    0.64930    1.000
    H13      H        0.50180    0.84210    0.75700    1.000
    C14      C        0.99690    0.59380    0.64930    1.000
    H14      H        0.99820    0.65790    0.75700    1.000
    C15      C        0.90620    0.99690    0.64930    1.000
    H15      H        0.84210    0.99820    0.75700    1.000
    C16      C        0.59380    0.50310    0.64930    1.000
    H16      H        0.65790    0.50180    0.75700    1.000
    Co1      Co       0.25000    0.25000    0.50000    1.000
    Co2      Co       0.75000    0.75000    0.50000    1.000
    N1       N        0.09850    0.09850    0.50000    1.000
    N2       N        0.40150    0.40150    0.50000    1.000
    N3       N        0.40150    0.09850    0.50000    1.000
    N4       N        0.09850    0.40150    0.50000    1.000
    N5       N        0.90150    0.90150    0.50000    1.000
    N6       N        0.59850    0.59850    0.50000    1.000
    N7       N        0.59850    0.90150    0.50000    1.000
    N8       N        0.90150    0.59850    0.50000    1.000
    O1       O        0.25000    0.25000    0.16650    1.000
    O2       O        0.25000    0.25000    0.83350    1.000
    O3       O        0.75000    0.75000    0.83350    1.000
    O4       O        0.75000    0.75000    0.16650    1.000
    N9       N        0.25000    0.25000    0.00000    1.000
    N10      N        0.75000    0.75000    0.00000    1.000
