# CIF file generated by openbabel 3.1.0, see https://openbabel.org
data_I
_chemical_name_common 'DIWNAA_clean'
_cell_length_a 8.5897
_cell_length_b 17.4446
_cell_length_c 17.4446
_cell_angle_alpha 120
_cell_angle_beta 90
_cell_angle_gamma 90
_space_group_name_H-M_alt 'P 1'
_space_group_name_Hall 'P 1'
loop_
    _symmetry_equiv_pos_as_xyz
    x,y,z
loop_
    _atom_site_label
    _atom_site_type_symbol
    _atom_site_fract_x
    _atom_site_fract_y
    _atom_site_fract_z
    _atom_site_occupancy
    Mg1      Mg       0.66667    0.00000    0.53516    1.000
    Mg2      Mg       0.33333    0.46484    0.46484    1.000
    Mg3      Mg       0.00000    0.53516    0.00000    1.000
    H1       H        0.54313    0.87890    0.68970    1.000
    H2       H        0.53257    0.04230    0.24300    1.000
    H3       H        0.87647    0.81080    0.12110    1.000
    H4       H        0.86800    0.54600    0.12800    1.000
    H5       H        0.13410    0.24300    0.04230    1.000
    H6       H        0.46533    0.45400    0.58200    1.000
    H7       H        0.32503    0.46280    0.69600    1.000
    H8       H        0.79867    0.12800    0.54600    1.000
    H9       H        0.45687    0.18920    0.31030    1.000
    H10      H        0.99170    0.30400    0.76680    1.000
    H11      H        0.00830    0.53720    0.23320    1.000
    H12      H        0.19923    0.75700    0.79930    1.000
    H13      H        0.79020    0.12110    0.81080    1.000
    H14      H        0.80077    0.95770    0.20070    1.000
    H15      H        0.53467    0.87200    0.41800    1.000
    H16      H        0.67497    0.76680    0.30400    1.000
    H17      H        0.46743    0.79930    0.75700    1.000
    H18      H        0.20980    0.31030    0.18920    1.000
    H19      H        0.65837    0.23320    0.53720    1.000
    H20      H        0.13200    0.41800    0.87200    1.000
    H21      H        0.86590    0.20070    0.95770    1.000
    H22      H        0.12353    0.68970    0.87890    1.000
    H23      H        0.20133    0.58200    0.45400    1.000
    H24      H        0.34163    0.69600    0.46280    1.000
    C1       C        0.97600    0.30130    0.95350    1.000
    C2       C        0.02400    0.34780    0.04650    1.000
    C3       C        0.64267    0.04650    0.34780    1.000
    C4       C        0.03430    0.47699    0.19388    1.000
    C5       C        0.15400    0.34340    0.16850    1.000
    C6       C        0.89230    0.22260    0.91930    1.000
    C7       C        0.50283    0.84460    0.52509    1.000
    C8       C        0.83617    0.68049    0.15540    1.000
    C9       C        0.16950    0.47491    0.31951    1.000
    C10      C        0.36763    0.71689    0.52301    1.000
    C11      C        0.10770    0.30330    0.08070    1.000
    C12      C        0.29903    0.52301    0.71689    1.000
    C13      C        0.34633    0.56297    0.66951    1.000
    C14      C        0.84600    0.17490    0.83150    1.000
    C15      C        0.54727    0.22496    0.43020    1.000
    C16      C        0.78607    0.77504    0.20524    1.000
    C17      C        0.82067    0.83150    0.17490    1.000
    C18      C        0.70097    0.80612    0.28311    1.000
    C19      C        0.63237    0.19388    0.47699    1.000
    C20      C        0.98700    0.43703    0.10654    1.000
    C21      C        0.77437    0.91930    0.22260    1.000
    C22      C        0.51267    0.16850    0.34340    1.000
    C23      C        0.21393    0.56980    0.79476    1.000
    C24      C        0.55897    0.08070    0.30330    1.000
    C25      C        0.96570    0.28311    0.80612    1.000
    C26      C        0.83050    0.15540    0.68049    1.000
    C27      C        0.69067    0.95350    0.30130    1.000
    C28      C        0.32033    0.66951    0.56297    1.000
    C29      C        0.01300    0.33049    0.89346    1.000
    C30      C        0.49717    0.31951    0.47491    1.000
    C31      C        0.35733    0.69870    0.65220    1.000
    C32      C        0.17933    0.65660    0.82510    1.000
    C33      C        0.48733    0.82510    0.65660    1.000
    C34      C        0.65367    0.89346    0.33049    1.000
    C35      C        0.11940    0.43020    0.22496    1.000
    C36      C        0.67967    0.10654    0.43703    1.000
    C37      C        0.22563    0.69670    0.77740    1.000
    C38      C        0.44103    0.77740    0.69670    1.000
    C39      C        0.16383    0.52509    0.84460    1.000
    C40      C        0.88060    0.20524    0.77504    1.000
    C41      C        0.45273    0.79476    0.56980    1.000
    C42      C        0.30933    0.65220    0.69870    1.000
    O1       O        0.23543    0.59260    0.51598    1.000
    O2       O        0.86220    0.18851    0.63155    1.000
    O3       O        0.90210    0.48402    0.07662    1.000
    O4       O        0.43123    0.51598    0.59260    1.000
    O5       O        0.09790    0.40740    0.92338    1.000
    O6       O        0.76457    0.07662    0.48402    1.000
    O7       O        0.75920    0.08431    0.65450    1.000
    O8       O        0.24080    0.42981    0.34550    1.000
    O9       O        0.56877    0.92338    0.40740    1.000
    O10      O        0.09253    0.57019    0.91569    1.000
    O11      O        0.19553    0.44304    0.81149    1.000
    O12      O        0.90747    0.65450    0.08431    1.000
    O13      O        0.47113    0.81149    0.44304    1.000
    O14      O        0.42587    0.34550    0.42981    1.000
    O15      O        0.52887    0.36845    0.55696    1.000
    O16      O        0.57413    0.91569    0.57019    1.000
    O17      O        0.13780    0.55696    0.36845    1.000
    O18      O        0.80447    0.63155    0.18851    1.000
