# CIF file generated by openbabel 3.1.0, see https://openbabel.org
data_I
_chemical_name_common 'image0'
_cell_length_a 24.576
_cell_length_b 12.416
_cell_length_c 18.094
_cell_angle_alpha 90
_cell_angle_beta 102.534
_cell_angle_gamma 90
_space_group_name_H-M_alt 'P 1'
_space_group_name_Hall 'P 1'
loop_
    _symmetry_equiv_pos_as_xyz
    x,y,z
loop_
    _atom_site_label
    _atom_site_type_symbol
    _atom_site_fract_x
    _atom_site_fract_y
    _atom_site_fract_z
    _atom_site_occupancy
    Fe1      Fe       0.13949    0.26931    0.07877    1.000
    Cd1      Cd       0.63076    0.32710    0.71056    1.000
    C1       C        0.83370    0.65400    0.52130    1.000
    C2       C        0.82580    0.58300    0.58680    1.000
    C3       C        0.77560    0.53760    0.58780    1.000
    H1       H        0.74460    0.55240    0.54940    1.000
    C4       C        0.77090    0.46770    0.64760    1.000
    C5       C        0.81680    0.45120    0.70640    1.000
    H2       H        0.81400    0.40490    0.74580    1.000
    C6       C        0.86720    0.50330    0.70700    1.000
    C7       C        0.87120    0.56800    0.64580    1.000
    H3       H        0.90480    0.60160    0.64460    1.000
    C8       C        0.71820    0.41840    0.65450    1.000
    C9       C        0.91650    0.49040    0.77150    1.000
    H4       H        0.94800    0.46340    0.75270    1.000
    H5       H        0.92660    0.55980    0.79500    1.000
    C10      C        0.94620    0.39510    0.88670    1.000
    C11      C        0.93170    0.32630    0.94060    1.000
    H6       H        0.89530    0.30080    0.93280    1.000
    C12      C        0.96990    0.29470    0.00530    1.000
    C13      C        0.02570    0.32940    0.01450    1.000
    C14      C        0.03980    0.39970    0.95940    1.000
    C15      C        0.00010    0.43270    0.89620    1.000
    H7       H        0.00980    0.47930    0.86090    1.000
    C16      C        0.95210    0.21760    0.06270    1.000
    C17      C        0.88890    0.19900    0.04530    1.000
    H8       H        0.87960    0.15090    0.08220    1.000
    H9       H        0.87730    0.16800    0.99570    1.000
    H10      H        0.87020    0.26650    0.04700    1.000
    C18      C        0.98000    0.10830    0.05800    1.000
    H11      H        0.96920    0.05920    0.09320    1.000
    H12      H        0.01980    0.11710    0.07020    1.000
    H13      H        0.96860    0.08020    0.00760    1.000
    C19      C        0.96880    0.26190    0.14410    1.000
    H14      H        0.95700    0.21250    0.17840    1.000
    H15      H        0.95120    0.33040    0.14670    1.000
    H16      H        0.00850    0.27030    0.15800    1.000
    C20      C        0.09510    0.44310    0.96730    1.000
    H17      H        0.09910    0.50390    0.93890    1.000
    C21      C        0.19130    0.46160    0.02200    1.000
    H18      H        0.18660    0.53120    0.99710    1.000
    H19      H        0.21840    0.42030    0.00220    1.000
    C22      C        0.21040    0.47540    0.10750    1.000
    H20      H        0.24950    0.49520    0.12060    1.000
    H21      H        0.18890    0.53160    0.12520    1.000
    C23      C        0.23400    0.34570    0.20700    1.000
    H22      H        0.26160    0.39510    0.22740    1.000
    C24      C        0.23150    0.24960    0.24970    1.000
    C25      C        0.19280    0.16590    0.22580    1.000
    C26      C        0.19570    0.07050    0.26870    1.000
    C27      C        0.23620    0.06560    0.33440    1.000
    H23      H        0.23860    0.00340    0.36360    1.000
    C28      C        0.27340    0.14810    0.35950    1.000
    C29      C        0.27180    0.24140    0.31780    1.000
    H24      H        0.29670    0.29740    0.33420    1.000
    C30      C        0.15420    0.97660    0.24300    1.000
    C31      C        0.15950    0.93990    0.16270    1.000
    H25      H        0.13420    0.88160    0.14610    1.000
    H26      H        0.19700    0.91640    0.16440    1.000
    H27      H        0.15070    0.99910    0.12800    1.000
    C32      C        0.09670    0.01470    0.24360    1.000
    H28      H        0.07060    0.95730    0.22770    1.000
    H29      H        0.08740    0.07460    0.20970    1.000
    H30      H        0.09500    0.03670    0.29390    1.000
    C33      C        0.16720    0.88110    0.29680    1.000
    H31      H        0.14110    0.82410    0.27950    1.000
    H32      H        0.16420    0.90290    0.34670    1.000
    H33      H        0.20430    0.85620    0.29810    1.000
    C34      C        0.34200    0.22060    0.45970    1.000
    H34      H        0.31760    0.27720    0.47030    1.000
    H35      H        0.36350    0.24830    0.42480    1.000
    C35      C        0.38050    0.18310    0.53240    1.000
    C36      C        0.36580    0.10880    0.58010    1.000
    H36      H        0.33080    0.07700    0.56690    1.000
    C37      C        0.40120    0.07920    0.64720    1.000
    C38      C        0.45170    0.13110    0.66920    1.000
    H37      H        0.47520    0.11420    0.71530    1.000
    C39      C        0.46740    0.20730    0.62350    1.000
    C40      C        0.43240    0.23330    0.55470    1.000
    H38      H        0.44350    0.28430    0.52340    1.000
    C41      C        0.38540    0.99190    0.69470    1.000
    C42      C        0.52350    0.25680    0.64790    1.000
    N1       N        0.13890    0.40530    0.00980    1.000
    N2       N        0.20150    0.37080    0.14280    1.000
    O1       O        0.71690    0.35010    0.70510    1.000
    O2       O        0.79370    0.69480    0.47750    1.000
    O3       O        0.88250    0.66730    0.51030    1.000
    O4       O        0.90403    0.41850    0.82530    1.000
    O5       O        0.06369    0.30010    0.07580    1.000
    O6       O        0.15381    0.17760    0.16300    1.000
    O7       O        0.31060    0.13040    0.42830    1.000
    O8       O        0.35180    0.92030    0.66800    1.000
    O9       O        0.55130    0.23910    0.71170    1.000
    O10      O        0.53850    0.31610    0.60370    1.000
    O11      O        0.67780    0.44260    0.61300    1.000
    O12      O        0.40780    0.98170    0.75750    1.000
    Fe2      Fe       0.86051    0.76931    0.42123    1.000
    Cd2      Cd       0.36924    0.82710    0.78944    1.000
    C43      C        0.16630    0.15400    0.97870    1.000
    C44      C        0.17420    0.08300    0.91320    1.000
    C45      C        0.22440    0.03760    0.91220    1.000
    H39      H        0.25540    0.05240    0.95060    1.000
    C46      C        0.22910    0.96770    0.85240    1.000
    C47      C        0.18320    0.95120    0.79360    1.000
    H40      H        0.18600    0.90490    0.75420    1.000
    C48      C        0.13280    0.00330    0.79300    1.000
    C49      C        0.12880    0.06800    0.85420    1.000
    H41      H        0.09520    0.10160    0.85540    1.000
    C50      C        0.28180    0.91840    0.84550    1.000
    C51      C        0.08350    0.99040    0.72850    1.000
    H42      H        0.05200    0.96340    0.74730    1.000
    H43      H        0.07340    0.05980    0.70500    1.000
    C52      C        0.05380    0.89510    0.61330    1.000
    C53      C        0.06830    0.82630    0.55940    1.000
    H44      H        0.10470    0.80080    0.56720    1.000
    C54      C        0.03010    0.79470    0.49470    1.000
    C55      C        0.97430    0.82940    0.48550    1.000
    C56      C        0.96020    0.89970    0.54060    1.000
    C57      C        0.99990    0.93270    0.60380    1.000
    H45      H        0.99020    0.97930    0.63910    1.000
    C58      C        0.04790    0.71760    0.43730    1.000
    C59      C        0.11110    0.69900    0.45470    1.000
    H46      H        0.12040    0.65090    0.41780    1.000
    H47      H        0.12270    0.66800    0.50430    1.000
    H48      H        0.12980    0.76650    0.45300    1.000
    C60      C        0.02000    0.60830    0.44200    1.000
    H49      H        0.03080    0.55920    0.40680    1.000
    H50      H        0.98020    0.61710    0.42980    1.000
    H51      H        0.03140    0.58020    0.49240    1.000
    C61      C        0.03120    0.76190    0.35590    1.000
    H52      H        0.04300    0.71250    0.32160    1.000
    H53      H        0.04880    0.83040    0.35330    1.000
    H54      H        0.99150    0.77030    0.34200    1.000
    C62      C        0.90490    0.94310    0.53270    1.000
    H55      H        0.90090    0.00390    0.56110    1.000
    C63      C        0.80870    0.96160    0.47800    1.000
    H56      H        0.81340    0.03120    0.50290    1.000
    H57      H        0.78160    0.92030    0.49780    1.000
    C64      C        0.78960    0.97540    0.39250    1.000
    H58      H        0.75050    0.99520    0.37940    1.000
    H59      H        0.81110    0.03160    0.37480    1.000
    C65      C        0.76600    0.84570    0.29300    1.000
    H60      H        0.73840    0.89510    0.27260    1.000
    C66      C        0.76850    0.74960    0.25030    1.000
    C67      C        0.80720    0.66590    0.27420    1.000
    C68      C        0.80430    0.57050    0.23130    1.000
    C69      C        0.76380    0.56560    0.16560    1.000
    H61      H        0.76140    0.50340    0.13640    1.000
    C70      C        0.72660    0.64810    0.14050    1.000
    C71      C        0.72820    0.74140    0.18220    1.000
    H62      H        0.70330    0.79740    0.16580    1.000
    C72      C        0.84580    0.47660    0.25700    1.000
    C73      C        0.84050    0.43990    0.33730    1.000
    H63      H        0.86580    0.38160    0.35390    1.000
    H64      H        0.80300    0.41640    0.33560    1.000
    H65      H        0.84930    0.49910    0.37200    1.000
    C74      C        0.90330    0.51470    0.25640    1.000
    H66      H        0.92940    0.45730    0.27230    1.000
    H67      H        0.91260    0.57460    0.29030    1.000
    H68      H        0.90500    0.53670    0.20610    1.000
    C75      C        0.83280    0.38110    0.20320    1.000
    H69      H        0.85890    0.32410    0.22050    1.000
    H70      H        0.83580    0.40290    0.15330    1.000
    H71      H        0.79570    0.35620    0.20190    1.000
    C76      C        0.65800    0.72060    0.04030    1.000
    H72      H        0.68240    0.77720    0.02970    1.000
    H73      H        0.63650    0.74830    0.07520    1.000
    C77      C        0.61950    0.68310    0.96760    1.000
    C78      C        0.63420    0.60880    0.91990    1.000
    H74      H        0.66920    0.57700    0.93310    1.000
    C79      C        0.59880    0.57920    0.85280    1.000
    C80      C        0.54830    0.63110    0.83080    1.000
    H75      H        0.52480    0.61420    0.78470    1.000
    C81      C        0.53260    0.70730    0.87650    1.000
    C82      C        0.56760    0.73330    0.94530    1.000
    H76      H        0.55650    0.78430    0.97660    1.000
    C83      C        0.61460    0.49190    0.80530    1.000
    C84      C        0.47650    0.75680    0.85210    1.000
    N3       N        0.86110    0.90530    0.49020    1.000
    N4       N        0.79850    0.87080    0.35720    1.000
    O13      O        0.28310    0.85010    0.79490    1.000
    O14      O        0.20630    0.19480    0.02250    1.000
    O15      O        0.11750    0.16730    0.98970    1.000
    O16      O        0.09597    0.91850    0.67470    1.000
    O17      O        0.93631    0.80010    0.42420    1.000
    O18      O        0.84619    0.67760    0.33700    1.000
    O19      O        0.68940    0.63040    0.07170    1.000
    O20      O        0.64820    0.42030    0.83200    1.000
    O21      O        0.44870    0.73910    0.78830    1.000
    O22      O        0.46150    0.81610    0.89630    1.000
    O23      O        0.32220    0.94260    0.88700    1.000
    O24      O        0.59220    0.48170    0.74250    1.000
    Fe3      Fe       0.86051    0.73069    0.92123    1.000
    Cd3      Cd       0.36924    0.67290    0.28944    1.000
    C85      C        0.16630    0.34600    0.47870    1.000
    C86      C        0.17420    0.41700    0.41320    1.000
    C87      C        0.22440    0.46240    0.41220    1.000
    H77      H        0.25540    0.44760    0.45060    1.000
    C88      C        0.22910    0.53230    0.35240    1.000
    C89      C        0.18320    0.54880    0.29360    1.000
    H78      H        0.18600    0.59510    0.25420    1.000
    C90      C        0.13280    0.49670    0.29300    1.000
    C91      C        0.12880    0.43200    0.35420    1.000
    H79      H        0.09520    0.39840    0.35540    1.000
    C92      C        0.28180    0.58160    0.34550    1.000
    C93      C        0.08350    0.50960    0.22850    1.000
    H80      H        0.05200    0.53660    0.24730    1.000
    H81      H        0.07340    0.44020    0.20500    1.000
    C94      C        0.05380    0.60490    0.11330    1.000
    C95      C        0.06830    0.67370    0.05940    1.000
    H82      H        0.10470    0.69920    0.06720    1.000
    C96      C        0.03010    0.70530    0.99470    1.000
    C97      C        0.97430    0.67060    0.98550    1.000
    C98      C        0.96020    0.60030    0.04060    1.000
    C99      C        0.99990    0.56730    0.10380    1.000
    H83      H        0.99020    0.52070    0.13910    1.000
    C100     C        0.04790    0.78240    0.93730    1.000
    C101     C        0.11110    0.80100    0.95470    1.000
    H84      H        0.12040    0.84910    0.91780    1.000
    H85      H        0.12270    0.83200    0.00430    1.000
    H86      H        0.12980    0.73350    0.95300    1.000
    C102     C        0.02000    0.89170    0.94200    1.000
    H87      H        0.03080    0.94080    0.90680    1.000
    H88      H        0.98020    0.88290    0.92980    1.000
    H89      H        0.03140    0.91980    0.99240    1.000
    C103     C        0.03120    0.73810    0.85590    1.000
    H90      H        0.04300    0.78750    0.82160    1.000
    H91      H        0.04880    0.66960    0.85330    1.000
    H92      H        0.99150    0.72970    0.84200    1.000
    C104     C        0.90490    0.55690    0.03270    1.000
    H93      H        0.90090    0.49610    0.06110    1.000
    C105     C        0.80870    0.53840    0.97800    1.000
    H94      H        0.81340    0.46880    0.00290    1.000
    H95      H        0.78160    0.57970    0.99780    1.000
    C106     C        0.78960    0.52460    0.89250    1.000
    H96      H        0.75050    0.50480    0.87940    1.000
    H97      H        0.81110    0.46840    0.87480    1.000
    C107     C        0.76600    0.65430    0.79300    1.000
    H98      H        0.73840    0.60490    0.77260    1.000
    C108     C        0.76850    0.75040    0.75030    1.000
    C109     C        0.80720    0.83410    0.77420    1.000
    C110     C        0.80430    0.92950    0.73130    1.000
    C111     C        0.76380    0.93440    0.66560    1.000
    H99      H        0.76140    0.99660    0.63640    1.000
    C112     C        0.72660    0.85190    0.64050    1.000
    C113     C        0.72820    0.75860    0.68220    1.000
    H100     H        0.70330    0.70260    0.66580    1.000
    C114     C        0.84580    0.02340    0.75700    1.000
    C115     C        0.84050    0.06010    0.83730    1.000
    H101     H        0.86580    0.11840    0.85390    1.000
    H102     H        0.80300    0.08360    0.83560    1.000
    H103     H        0.84930    0.00090    0.87200    1.000
    C116     C        0.90330    0.98530    0.75640    1.000
    H104     H        0.92940    0.04270    0.77230    1.000
    H105     H        0.91260    0.92540    0.79030    1.000
    H106     H        0.90500    0.96330    0.70610    1.000
    C117     C        0.83280    0.11890    0.70320    1.000
    H107     H        0.85890    0.17590    0.72050    1.000
    H108     H        0.83580    0.09710    0.65330    1.000
    H109     H        0.79570    0.14380    0.70190    1.000
    C118     C        0.65800    0.77940    0.54030    1.000
    H110     H        0.68240    0.72280    0.52970    1.000
    H111     H        0.63650    0.75170    0.57520    1.000
    C119     C        0.61950    0.81690    0.46760    1.000
    C120     C        0.63420    0.89120    0.41990    1.000
    H112     H        0.66920    0.92300    0.43310    1.000
    C121     C        0.59880    0.92080    0.35280    1.000
    C122     C        0.54830    0.86890    0.33080    1.000
    H113     H        0.52480    0.88580    0.28470    1.000
    C123     C        0.53260    0.79270    0.37650    1.000
    C124     C        0.56760    0.76670    0.44530    1.000
    H114     H        0.55650    0.71570    0.47660    1.000
    C125     C        0.61460    0.00810    0.30530    1.000
    C126     C        0.47650    0.74320    0.35210    1.000
    N5       N        0.86110    0.59470    0.99020    1.000
    N6       N        0.79850    0.62920    0.85720    1.000
    O25      O        0.28310    0.64990    0.29490    1.000
    O26      O        0.20630    0.30520    0.52250    1.000
    O27      O        0.11750    0.33270    0.48970    1.000
    O28      O        0.09597    0.58150    0.17470    1.000
    O29      O        0.93631    0.69990    0.92420    1.000
    O30      O        0.84619    0.82240    0.83700    1.000
    O31      O        0.68940    0.86960    0.57170    1.000
    O32      O        0.64820    0.07970    0.33200    1.000
    O33      O        0.44870    0.76090    0.28830    1.000
    O34      O        0.46150    0.68390    0.39630    1.000
    O35      O        0.32220    0.55740    0.38700    1.000
    O36      O        0.59220    0.01830    0.24250    1.000
    Fe4      Fe       0.13949    0.23069    0.57877    1.000
    Cd4      Cd       0.63076    0.17290    0.21056    1.000
    C127     C        0.83370    0.84600    0.02130    1.000
    C128     C        0.82580    0.91700    0.08680    1.000
    C129     C        0.77560    0.96240    0.08780    1.000
    H115     H        0.74460    0.94760    0.04940    1.000
    C130     C        0.77090    0.03230    0.14760    1.000
    C131     C        0.81680    0.04880    0.20640    1.000
    H116     H        0.81400    0.09510    0.24580    1.000
    C132     C        0.86720    0.99670    0.20700    1.000
    C133     C        0.87120    0.93200    0.14580    1.000
    H117     H        0.90480    0.89840    0.14460    1.000
    C134     C        0.71820    0.08160    0.15450    1.000
    C135     C        0.91650    0.00960    0.27150    1.000
    H118     H        0.94800    0.03660    0.25270    1.000
    H119     H        0.92660    0.94020    0.29500    1.000
    C136     C        0.94620    0.10490    0.38670    1.000
    C137     C        0.93170    0.17370    0.44060    1.000
    H120     H        0.89530    0.19920    0.43280    1.000
    C138     C        0.96990    0.20530    0.50530    1.000
    C139     C        0.02570    0.17060    0.51450    1.000
    C140     C        0.03980    0.10030    0.45940    1.000
    C141     C        0.00010    0.06730    0.39620    1.000
    H121     H        0.00980    0.02070    0.36090    1.000
    C142     C        0.95210    0.28240    0.56270    1.000
    C143     C        0.88890    0.30100    0.54530    1.000
    H122     H        0.87960    0.34910    0.58220    1.000
    H123     H        0.87730    0.33200    0.49570    1.000
    H124     H        0.87020    0.23350    0.54700    1.000
    C144     C        0.98000    0.39170    0.55800    1.000
    H125     H        0.96920    0.44080    0.59320    1.000
    H126     H        0.01980    0.38290    0.57020    1.000
    H127     H        0.96860    0.41980    0.50760    1.000
    C145     C        0.96880    0.23810    0.64410    1.000
    H128     H        0.95700    0.28750    0.67840    1.000
    H129     H        0.95120    0.16960    0.64670    1.000
    H130     H        0.00850    0.22970    0.65800    1.000
    C146     C        0.09510    0.05690    0.46730    1.000
    H131     H        0.09910    0.99610    0.43890    1.000
    C147     C        0.19130    0.03840    0.52200    1.000
    H132     H        0.18660    0.96880    0.49710    1.000
    H133     H        0.21840    0.07970    0.50220    1.000
    C148     C        0.21040    0.02460    0.60750    1.000
    H134     H        0.24950    0.00480    0.62060    1.000
    H135     H        0.18890    0.96840    0.62520    1.000
    C149     C        0.23400    0.15430    0.70700    1.000
    H136     H        0.26160    0.10490    0.72740    1.000
    C150     C        0.23150    0.25040    0.74970    1.000
    C151     C        0.19280    0.33410    0.72580    1.000
    C152     C        0.19570    0.42950    0.76870    1.000
    C153     C        0.23620    0.43440    0.83440    1.000
    H137     H        0.23860    0.49660    0.86360    1.000
    C154     C        0.27340    0.35190    0.85950    1.000
    C155     C        0.27180    0.25860    0.81780    1.000
    H138     H        0.29670    0.20260    0.83420    1.000
    C156     C        0.15420    0.52340    0.74300    1.000
    C157     C        0.15950    0.56010    0.66270    1.000
    H139     H        0.13420    0.61840    0.64610    1.000
    H140     H        0.19700    0.58360    0.66440    1.000
    H141     H        0.15070    0.50090    0.62800    1.000
    C158     C        0.09670    0.48530    0.74360    1.000
    H142     H        0.07060    0.54270    0.72770    1.000
    H143     H        0.08740    0.42540    0.70970    1.000
    H144     H        0.09500    0.46330    0.79390    1.000
    C159     C        0.16720    0.61890    0.79680    1.000
    H145     H        0.14110    0.67590    0.77950    1.000
    H146     H        0.16420    0.59710    0.84670    1.000
    H147     H        0.20430    0.64380    0.79810    1.000
    C160     C        0.34200    0.27940    0.95970    1.000
    H148     H        0.31760    0.22280    0.97030    1.000
    H149     H        0.36350    0.25170    0.92480    1.000
    C161     C        0.38050    0.31690    0.03240    1.000
    C162     C        0.36580    0.39120    0.08010    1.000
    H150     H        0.33080    0.42300    0.06690    1.000
    C163     C        0.40120    0.42080    0.14720    1.000
    C164     C        0.45170    0.36890    0.16920    1.000
    H151     H        0.47520    0.38580    0.21530    1.000
    C165     C        0.46740    0.29270    0.12350    1.000
    C166     C        0.43240    0.26670    0.05470    1.000
    H152     H        0.44350    0.21570    0.02340    1.000
    C167     C        0.38540    0.50810    0.19470    1.000
    C168     C        0.52350    0.24320    0.14790    1.000
    N7       N        0.13890    0.09470    0.50980    1.000
    N8       N        0.20150    0.12920    0.64280    1.000
    O37      O        0.71690    0.14990    0.20510    1.000
    O38      O        0.79370    0.80520    0.97750    1.000
    O39      O        0.88250    0.83270    0.01030    1.000
    O40      O        0.90403    0.08150    0.32530    1.000
    O41      O        0.06369    0.19990    0.57580    1.000
    O42      O        0.15381    0.32240    0.66300    1.000
    O43      O        0.31060    0.36960    0.92830    1.000
    O44      O        0.35180    0.57970    0.16800    1.000
    O45      O        0.55130    0.26090    0.21170    1.000
    O46      O        0.53850    0.18390    0.10370    1.000
    O47      O        0.67780    0.05740    0.11300    1.000
    O48      O        0.40780    0.51830    0.25750    1.000
