# CIF file generated by openbabel 3.1.0, see https://openbabel.org
data_I
_chemical_name_common 'image0'
_cell_length_a 46.403
_cell_length_b 11.125
_cell_length_c 24.144
_cell_angle_alpha 90
_cell_angle_beta 98.48
_cell_angle_gamma 90
_space_group_name_H-M_alt 'P 1'
_space_group_name_Hall 'P 1'
loop_
    _symmetry_equiv_pos_as_xyz
    x,y,z
loop_
    _atom_site_label
    _atom_site_type_symbol
    _atom_site_fract_x
    _atom_site_fract_y
    _atom_site_fract_z
    _atom_site_occupancy
    Cd1      Cd       0.98699    0.66034    0.43905    1.000
    Cd2      Cd       0.28189    0.86594    0.42035    1.000
    O1       O        0.12927    0.52780    0.26580    1.000
    O2       O        0.89923    0.20760    0.11070    1.000
    O3       O        0.00358    0.45600    0.33530    1.000
    C1       C        0.07761    0.76490    0.57510    1.000
    O4       O        0.87033    0.92960    0.09950    1.000
    O5       O        0.01787    0.83020    0.46300    1.000
    O6       O        0.84644    0.10920    0.23390    1.000
    O7       O        0.02673    0.66480    0.51210    1.000
    O8       O        0.91433    0.00780    0.25830    1.000
    C2       C        0.06177    0.82560    0.52980    1.000
    O9       O        0.23715    0.85470    0.36150    1.000
    C3       C        0.15400    0.58450    0.29580    1.000
    N1       N        0.95895    0.78200    0.37620    1.000
    C4       C        0.20362    0.69300    0.34870    1.000
    C5       C        0.90917    0.31620    0.03180    1.000
    H1       H        0.88970    0.33890    0.02450    1.000
    C6       C        0.19510    0.58440    0.36450    1.000
    H2       H        0.20670    0.54500    0.39370    1.000
    C7       C        0.10384    0.52830    0.29040    1.000
    C8       C        0.05162    0.52280    0.33030    1.000
    C9       C        0.10143    0.58870    0.33790    1.000
    H3       H        0.11720    0.63010    0.35710    1.000
    C10      C        0.05542    0.46140    0.28230    1.000
    H4       H        0.04010    0.41670    0.26350    1.000
    N2       N        0.80274    0.28330    0.34650    1.000
    C11      C        0.93983    0.73820    0.33390    1.000
    H5       H        0.93720    0.65540    0.33230    1.000
    C12      C        0.06948    0.93760    0.51220    1.000
    N3       N        0.95653    0.32250    0.00620    1.000
    O10      O        0.24676    0.69650    0.41580    1.000
    C13      C        0.07508    0.58760    0.35710    1.000
    H6       H        0.07290    0.63150    0.38900    1.000
    C14      C        0.86898    0.16500    0.20920    1.000
    H7       H        0.88340    0.19920    0.23800    1.000
    H8       H        0.86100    0.22910    0.18430    1.000
    C15      C        0.94711    0.97830    0.33880    1.000
    H9       H        0.94990    0.06090    0.34190    1.000
    C16      C        0.85146    0.87130    0.06250    1.000
    O11      O        0.02108    0.60780    0.38880    1.000
    C17      C        0.92818    0.93020    0.29560    1.000
    C18      C        0.16170    0.69280    0.27690    1.000
    H10      H        0.15080    0.73000    0.24630    1.000
    C19      C        0.92399    0.80560    0.29310    1.000
    H11      H        0.91100    0.77030    0.26480    1.000
    C20      C        0.90927    0.11830    0.15210    1.000
    H12      H        0.92290    0.15410    0.18180    1.000
    H13      H        0.91920    0.05430    0.13520    1.000
    C21      C        0.91892    0.24550    0.07870    1.000
    C22      C        0.88307    0.06750    0.17600    1.000
    C23      C        0.94817    0.21800    0.08930    1.000
    H14      H        0.95580    0.17260    0.12030    1.000
    C24      C        0.16960    0.52830    0.33910    1.000
    H15      H        0.16370    0.45470    0.35180    1.000
    C25      C        0.08114    0.46500    0.26200    1.000
    H16      H        0.08330    0.42490    0.22900    1.000
    C26      C        0.86151    0.77870    0.03440    1.000
    H17      H        0.88100    0.75690    0.04180    1.000
    C27      C        0.83274    0.16960    0.26920    1.000
    C28      C        0.85893    0.02390    0.12950    1.000
    H18      H        0.84230    0.99520    0.14580    1.000
    H19      H        0.85250    0.08970    0.10430    1.000
    C29      C        0.82180    0.34020    0.32200    1.000
    H20      H        0.82550    0.42020    0.33170    1.000
    C30      C        0.96585    0.26000    0.05230    1.000
    H21      H        0.98570    0.24350    0.06020    1.000
    C31      C        0.18670    0.74570    0.30540    1.000
    H22      H        0.19190    0.82150    0.29410    1.000
    C32      C        0.96194    0.90040    0.37770    1.000
    H23      H        0.97490    0.93340    0.40680    1.000
    C33      C        0.89397    0.96320    0.21290    1.000
    H24      H        0.87780    0.92430    0.22700    1.000
    H25      H        0.90330    0.90460    0.19160    1.000
    C34      C        0.03319    0.77090    0.49910    1.000
    N4       N        0.81447    0.74000    0.98380    1.000
    C35      C        0.84298    0.71710    0.99510    1.000
    H26      H        0.85060    0.65620    0.97520    1.000
    C36      C        0.92757    0.35150    0.99750    1.000
    H27      H        0.92040    0.39770    0.96640    1.000
    C37      C        0.02284    0.52740    0.35320    1.000
    C38      C        0.81220    0.10920    0.29390    1.000
    H28      H        0.80810    0.02890    0.28550    1.000
    C39      C        0.83716    0.29000    0.28180    1.000
    H29      H        0.84990    0.33610    0.26420    1.000
    C40      C        0.82212    0.89810    0.05110    1.000
    H30      H        0.81420    0.96030    0.06970    1.000
    C41      C        0.79780    0.16970    0.33120    1.000
    H31      H        0.78370    0.12800    0.34690    1.000
    C42      C        0.80503    0.83100    0.01180    1.000
    H32      H        0.78540    0.85050    0.00410    1.000
    C43      C        0.23061    0.75090    0.37730    1.000
    C44      C        0.09090    0.00300    0.54710    1.000
    H33      H        0.09490    0.08320    0.53980    1.000
    C45      C        0.10540    0.94400    0.59200    1.000
    C46      C        0.09880    0.83240    0.60890    1.000
    H34      H        0.10820    0.80100    0.64240    1.000
    C47      C        0.19290    0.37620    0.55830    1.000
    C48      C        0.17560    0.27990    0.57420    1.000
    C49      C        0.15800    0.30060    0.61480    1.000
    H35      H        0.15720    0.37650    0.63070    1.000
    C50      C        0.14140    0.20730    0.63140    1.000
    H36      H        0.12920    0.22030    0.65810    1.000
    C51      C        0.14320    0.09530    0.60810    1.000
    C52      C        0.16020    0.07430    0.56700    1.000
    H37      H        0.16090    0.99840    0.55100    1.000
    C53      C        0.17640    0.16850    0.54970    1.000
    H38      H        0.18780    0.15630    0.52160    1.000
    O12      O        0.12800    0.99980    0.62740    1.000
    O13      O        0.19440    0.47790    0.58860    1.000
    O14      O        0.20770    0.36610    0.51320    1.000
    C54      C        0.09910    0.97200    0.53510    1.000
    H39      H        0.10720    0.03970    0.52060    1.000
    C55      C        0.11500    0.90900    0.57700    1.000
    C56      C        0.10610    0.80200    0.59280    1.000
    H40      H        0.11900    0.75200    0.61540    1.000
    C57      C        0.18650    0.40020    0.59020    1.000
    C58      C        0.17540    0.28360    0.59420    1.000
    C59      C        0.14760    0.26860    0.60640    1.000
    H41      H        0.13650    0.33510    0.61350    1.000
    C60      C        0.13610    0.15460    0.60800    1.000
    H42      H        0.11720    0.14390    0.61570    1.000
    C61      C        0.15280    0.05620    0.59800    1.000
    C62      C        0.18050    0.07040    0.58400    1.000
    H43      H        0.19100    0.00390    0.57490    1.000
    C63      C        0.19220    0.18360    0.58380    1.000
    H44      H        0.21120    0.19390    0.57680    1.000
    O15      O        0.14230    0.94050    0.60390    1.000
    O16      O        0.21540    0.42400    0.59560    1.000
    O17      O        0.16970    0.49940    0.57820    1.000
    Cd3      Cd       0.48699    0.16034    0.43905    1.000
    Cd4      Cd       0.78189    0.36594    0.42035    1.000
    O18      O        0.62927    0.02780    0.26580    1.000
    O19      O        0.39923    0.70760    0.11070    1.000
    O20      O        0.50358    0.95600    0.33530    1.000
    C64      C        0.57761    0.26490    0.57510    1.000
    O21      O        0.37033    0.42960    0.09950    1.000
    O22      O        0.51787    0.33020    0.46300    1.000
    O23      O        0.34644    0.60920    0.23390    1.000
    O24      O        0.52673    0.16480    0.51210    1.000
    O25      O        0.41433    0.50780    0.25830    1.000
    C65      C        0.56177    0.32560    0.52980    1.000
    O26      O        0.73715    0.35470    0.36150    1.000
    C66      C        0.65400    0.08450    0.29580    1.000
    N5       N        0.45895    0.28200    0.37620    1.000
    C67      C        0.70362    0.19300    0.34870    1.000
    C68      C        0.40917    0.81620    0.03180    1.000
    H45      H        0.38970    0.83890    0.02450    1.000
    C69      C        0.69510    0.08440    0.36450    1.000
    H46      H        0.70670    0.04500    0.39370    1.000
    C70      C        0.60384    0.02830    0.29040    1.000
    C71      C        0.55162    0.02280    0.33030    1.000
    C72      C        0.60143    0.08870    0.33790    1.000
    H47      H        0.61720    0.13010    0.35710    1.000
    C73      C        0.55542    0.96140    0.28230    1.000
    H48      H        0.54010    0.91670    0.26350    1.000
    N6       N        0.30274    0.78330    0.34650    1.000
    C74      C        0.43983    0.23820    0.33390    1.000
    H49      H        0.43720    0.15540    0.33230    1.000
    C75      C        0.56948    0.43760    0.51220    1.000
    N7       N        0.45653    0.82250    0.00620    1.000
    O27      O        0.74676    0.19650    0.41580    1.000
    C76      C        0.57508    0.08760    0.35710    1.000
    H50      H        0.57290    0.13150    0.38900    1.000
    C77      C        0.36898    0.66500    0.20920    1.000
    H51      H        0.38340    0.69920    0.23800    1.000
    H52      H        0.36100    0.72910    0.18430    1.000
    C78      C        0.44711    0.47830    0.33880    1.000
    H53      H        0.44990    0.56090    0.34190    1.000
    C79      C        0.35146    0.37130    0.06250    1.000
    O28      O        0.52108    0.10780    0.38880    1.000
    C80      C        0.42818    0.43020    0.29560    1.000
    C81      C        0.66170    0.19280    0.27690    1.000
    H54      H        0.65080    0.23000    0.24630    1.000
    C82      C        0.42399    0.30560    0.29310    1.000
    H55      H        0.41100    0.27030    0.26480    1.000
    C83      C        0.40927    0.61830    0.15210    1.000
    H56      H        0.42290    0.65410    0.18180    1.000
    H57      H        0.41920    0.55430    0.13520    1.000
    C84      C        0.41892    0.74550    0.07870    1.000
    C85      C        0.38307    0.56750    0.17600    1.000
    C86      C        0.44817    0.71800    0.08930    1.000
    H58      H        0.45580    0.67260    0.12030    1.000
    C87      C        0.66960    0.02830    0.33910    1.000
    H59      H        0.66370    0.95470    0.35180    1.000
    C88      C        0.58114    0.96500    0.26200    1.000
    H60      H        0.58330    0.92490    0.22900    1.000
    C89      C        0.36151    0.27870    0.03440    1.000
    H61      H        0.38100    0.25690    0.04180    1.000
    C90      C        0.33274    0.66960    0.26920    1.000
    C91      C        0.35893    0.52390    0.12950    1.000
    H62      H        0.34230    0.49520    0.14580    1.000
    H63      H        0.35250    0.58970    0.10430    1.000
    C92      C        0.32180    0.84020    0.32200    1.000
    H64      H        0.32550    0.92020    0.33170    1.000
    C93      C        0.46585    0.76000    0.05230    1.000
    H65      H        0.48570    0.74350    0.06020    1.000
    C94      C        0.68670    0.24570    0.30540    1.000
    H66      H        0.69190    0.32150    0.29410    1.000
    C95      C        0.46194    0.40040    0.37770    1.000
    H67      H        0.47490    0.43340    0.40680    1.000
    C96      C        0.39397    0.46320    0.21290    1.000
    H68      H        0.37780    0.42430    0.22700    1.000
    H69      H        0.40330    0.40460    0.19160    1.000
    C97      C        0.53319    0.27090    0.49910    1.000
    N8       N        0.31447    0.24000    0.98380    1.000
    C98      C        0.34298    0.21710    0.99510    1.000
    H70      H        0.35060    0.15620    0.97520    1.000
    C99      C        0.42757    0.85150    0.99750    1.000
    H71      H        0.42040    0.89770    0.96640    1.000
    C100     C        0.52284    0.02740    0.35320    1.000
    C101     C        0.31220    0.60920    0.29390    1.000
    H72      H        0.30810    0.52890    0.28550    1.000
    C102     C        0.33716    0.79000    0.28180    1.000
    H73      H        0.34990    0.83610    0.26420    1.000
    C103     C        0.32212    0.39810    0.05110    1.000
    H74      H        0.31420    0.46030    0.06970    1.000
    C104     C        0.29780    0.66970    0.33120    1.000
    H75      H        0.28370    0.62800    0.34690    1.000
    C105     C        0.30503    0.33100    0.01180    1.000
    H76      H        0.28540    0.35050    0.00410    1.000
    C106     C        0.73061    0.25090    0.37730    1.000
    C107     C        0.59090    0.50300    0.54710    1.000
    H77      H        0.59490    0.58320    0.53980    1.000
    C108     C        0.60540    0.44400    0.59200    1.000
    C109     C        0.59880    0.33240    0.60890    1.000
    H78      H        0.60820    0.30100    0.64240    1.000
    C110     C        0.69290    0.87620    0.55830    1.000
    C111     C        0.67560    0.77990    0.57420    1.000
    C112     C        0.65800    0.80060    0.61480    1.000
    H79      H        0.65720    0.87650    0.63070    1.000
    C113     C        0.64140    0.70730    0.63140    1.000
    H80      H        0.62920    0.72030    0.65810    1.000
    C114     C        0.64320    0.59530    0.60810    1.000
    C115     C        0.66020    0.57430    0.56700    1.000
    H81      H        0.66090    0.49840    0.55100    1.000
    C116     C        0.67640    0.66850    0.54970    1.000
    H82      H        0.68780    0.65630    0.52160    1.000
    O29      O        0.62800    0.49980    0.62740    1.000
    O30      O        0.69440    0.97790    0.58860    1.000
    O31      O        0.70770    0.86610    0.51320    1.000
    C117     C        0.59910    0.47200    0.53510    1.000
    H83      H        0.60720    0.53970    0.52060    1.000
    C118     C        0.61500    0.40900    0.57700    1.000
    C119     C        0.60610    0.30200    0.59280    1.000
    H84      H        0.61900    0.25200    0.61540    1.000
    C120     C        0.68650    0.90020    0.59020    1.000
    C121     C        0.67540    0.78360    0.59420    1.000
    C122     C        0.64760    0.76860    0.60640    1.000
    H85      H        0.63650    0.83510    0.61350    1.000
    C123     C        0.63610    0.65460    0.60800    1.000
    H86      H        0.61720    0.64390    0.61570    1.000
    C124     C        0.65280    0.55620    0.59800    1.000
    C125     C        0.68050    0.57040    0.58400    1.000
    H87      H        0.69100    0.50390    0.57490    1.000
    C126     C        0.69220    0.68360    0.58380    1.000
    H88      H        0.71120    0.69390    0.57680    1.000
    O32      O        0.64230    0.44050    0.60390    1.000
    O33      O        0.71540    0.92400    0.59560    1.000
    O34      O        0.66970    0.99940    0.57820    1.000
    Cd5      Cd       0.01301    0.66034    0.06095    1.000
    Cd6      Cd       0.71811    0.86594    0.07965    1.000
    O35      O        0.87073    0.52780    0.23420    1.000
    O36      O        0.10077    0.20760    0.38930    1.000
    O37      O        0.99642    0.45600    0.16470    1.000
    C127     C        0.92239    0.76490    0.92490    1.000
    O38      O        0.12967    0.92960    0.40050    1.000
    O39      O        0.98213    0.83020    0.03700    1.000
    O40      O        0.15356    0.10920    0.26610    1.000
    O41      O        0.97327    0.66480    0.98790    1.000
    O42      O        0.08567    0.00780    0.24170    1.000
    C128     C        0.93823    0.82560    0.97020    1.000
    O43      O        0.76285    0.85470    0.13850    1.000
    C129     C        0.84600    0.58450    0.20420    1.000
    N9       N        0.04105    0.78200    0.12380    1.000
    C130     C        0.79638    0.69300    0.15130    1.000
    C131     C        0.09083    0.31620    0.46820    1.000
    H89      H        0.11030    0.33890    0.47550    1.000
    C132     C        0.80490    0.58440    0.13550    1.000
    H90      H        0.79330    0.54500    0.10630    1.000
    C133     C        0.89616    0.52830    0.20960    1.000
    C134     C        0.94838    0.52280    0.16970    1.000
    C135     C        0.89857    0.58870    0.16210    1.000
    H91      H        0.88280    0.63010    0.14290    1.000
    C136     C        0.94458    0.46140    0.21770    1.000
    H92      H        0.95990    0.41670    0.23650    1.000
    N10      N        0.19726    0.28330    0.15350    1.000
    C137     C        0.06017    0.73820    0.16610    1.000
    H93      H        0.06280    0.65540    0.16770    1.000
    C138     C        0.93052    0.93760    0.98780    1.000
    N11      N        0.04347    0.32250    0.49380    1.000
    O44      O        0.75324    0.69650    0.08420    1.000
    C139     C        0.92492    0.58760    0.14290    1.000
    H94      H        0.92710    0.63150    0.11100    1.000
    C140     C        0.13102    0.16500    0.29080    1.000
    H95      H        0.11660    0.19920    0.26200    1.000
    H96      H        0.13900    0.22910    0.31570    1.000
    C141     C        0.05289    0.97830    0.16120    1.000
    H97      H        0.05010    0.06090    0.15810    1.000
    C142     C        0.14854    0.87130    0.43750    1.000
    O45      O        0.97892    0.60780    0.11120    1.000
    C143     C        0.07182    0.93020    0.20440    1.000
    C144     C        0.83830    0.69280    0.22310    1.000
    H98      H        0.84920    0.73000    0.25370    1.000
    C145     C        0.07601    0.80560    0.20690    1.000
    H99      H        0.08900    0.77030    0.23520    1.000
    C146     C        0.09073    0.11830    0.34790    1.000
    H100     H        0.07710    0.15410    0.31820    1.000
    H101     H        0.08080    0.05430    0.36480    1.000
    C147     C        0.08108    0.24550    0.42130    1.000
    C148     C        0.11693    0.06750    0.32400    1.000
    C149     C        0.05183    0.21800    0.41070    1.000
    H102     H        0.04420    0.17260    0.37970    1.000
    C150     C        0.83040    0.52830    0.16090    1.000
    H103     H        0.83630    0.45470    0.14820    1.000
    C151     C        0.91886    0.46500    0.23800    1.000
    H104     H        0.91670    0.42490    0.27100    1.000
    C152     C        0.13849    0.77870    0.46560    1.000
    H105     H        0.11900    0.75690    0.45820    1.000
    C153     C        0.16726    0.16960    0.23080    1.000
    C154     C        0.14107    0.02390    0.37050    1.000
    H106     H        0.15770    0.99520    0.35420    1.000
    H107     H        0.14750    0.08970    0.39570    1.000
    C155     C        0.17820    0.34020    0.17800    1.000
    H108     H        0.17450    0.42020    0.16830    1.000
    C156     C        0.03415    0.26000    0.44770    1.000
    H109     H        0.01430    0.24350    0.43980    1.000
    C157     C        0.81330    0.74570    0.19460    1.000
    H110     H        0.80810    0.82150    0.20590    1.000
    C158     C        0.03806    0.90040    0.12230    1.000
    H111     H        0.02510    0.93340    0.09320    1.000
    C159     C        0.10603    0.96320    0.28710    1.000
    H112     H        0.12220    0.92430    0.27300    1.000
    H113     H        0.09670    0.90460    0.30840    1.000
    C160     C        0.96681    0.77090    0.00090    1.000
    N12      N        0.18553    0.74000    0.51620    1.000
    C161     C        0.15702    0.71710    0.50490    1.000
    H114     H        0.14940    0.65620    0.52480    1.000
    C162     C        0.07243    0.35150    0.50250    1.000
    H115     H        0.07960    0.39770    0.53360    1.000
    C163     C        0.97716    0.52740    0.14680    1.000
    C164     C        0.18780    0.10920    0.20610    1.000
    H116     H        0.19190    0.02890    0.21450    1.000
    C165     C        0.16284    0.29000    0.21820    1.000
    H117     H        0.15010    0.33610    0.23580    1.000
    C166     C        0.17788    0.89810    0.44890    1.000
    H118     H        0.18580    0.96030    0.43030    1.000
    C167     C        0.20220    0.16970    0.16880    1.000
    H119     H        0.21630    0.12800    0.15310    1.000
    C168     C        0.19497    0.83100    0.48820    1.000
    H120     H        0.21460    0.85050    0.49590    1.000
    C169     C        0.76939    0.75090    0.12270    1.000
    C170     C        0.90910    0.00300    0.95290    1.000
    H121     H        0.90510    0.08320    0.96020    1.000
    C171     C        0.89460    0.94400    0.90800    1.000
    C172     C        0.90120    0.83240    0.89110    1.000
    H122     H        0.89180    0.80100    0.85760    1.000
    C173     C        0.80710    0.37620    0.94170    1.000
    C174     C        0.82440    0.27990    0.92580    1.000
    C175     C        0.84200    0.30060    0.88520    1.000
    H123     H        0.84280    0.37650    0.86930    1.000
    C176     C        0.85860    0.20730    0.86860    1.000
    H124     H        0.87080    0.22030    0.84190    1.000
    C177     C        0.85680    0.09530    0.89190    1.000
    C178     C        0.83980    0.07430    0.93300    1.000
    H125     H        0.83910    0.99840    0.94900    1.000
    C179     C        0.82360    0.16850    0.95030    1.000
    H126     H        0.81220    0.15630    0.97840    1.000
    O46      O        0.87200    0.99980    0.87260    1.000
    O47      O        0.80560    0.47790    0.91140    1.000
    O48      O        0.79230    0.36610    0.98680    1.000
    C180     C        0.90090    0.97200    0.96490    1.000
    H127     H        0.89280    0.03970    0.97940    1.000
    C181     C        0.88500    0.90900    0.92300    1.000
    C182     C        0.89390    0.80200    0.90720    1.000
    H128     H        0.88100    0.75200    0.88460    1.000
    C183     C        0.81350    0.40020    0.90980    1.000
    C184     C        0.82460    0.28360    0.90580    1.000
    C185     C        0.85240    0.26860    0.89360    1.000
    H129     H        0.86350    0.33510    0.88650    1.000
    C186     C        0.86390    0.15460    0.89200    1.000
    H130     H        0.88280    0.14390    0.88430    1.000
    C187     C        0.84720    0.05620    0.90200    1.000
    C188     C        0.81950    0.07040    0.91600    1.000
    H131     H        0.80900    0.00390    0.92510    1.000
    C189     C        0.80780    0.18360    0.91620    1.000
    H132     H        0.78880    0.19390    0.92320    1.000
    O49      O        0.85770    0.94050    0.89610    1.000
    O50      O        0.78460    0.42400    0.90440    1.000
    O51      O        0.83030    0.49940    0.92180    1.000
    Cd7      Cd       0.51301    0.16034    0.06095    1.000
    Cd8      Cd       0.21811    0.36594    0.07965    1.000
    O52      O        0.37073    0.02780    0.23420    1.000
    O53      O        0.60077    0.70760    0.38930    1.000
    O54      O        0.49642    0.95600    0.16470    1.000
    C190     C        0.42239    0.26490    0.92490    1.000
    O55      O        0.62967    0.42960    0.40050    1.000
    O56      O        0.48213    0.33020    0.03700    1.000
    O57      O        0.65356    0.60920    0.26610    1.000
    O58      O        0.47327    0.16480    0.98790    1.000
    O59      O        0.58567    0.50780    0.24170    1.000
    C191     C        0.43823    0.32560    0.97020    1.000
    O60      O        0.26285    0.35470    0.13850    1.000
    C192     C        0.34600    0.08450    0.20420    1.000
    N13      N        0.54105    0.28200    0.12380    1.000
    C193     C        0.29638    0.19300    0.15130    1.000
    C194     C        0.59083    0.81620    0.46820    1.000
    H133     H        0.61030    0.83890    0.47550    1.000
    C195     C        0.30490    0.08440    0.13550    1.000
    H134     H        0.29330    0.04500    0.10630    1.000
    C196     C        0.39616    0.02830    0.20960    1.000
    C197     C        0.44838    0.02280    0.16970    1.000
    C198     C        0.39857    0.08870    0.16210    1.000
    H135     H        0.38280    0.13010    0.14290    1.000
    C199     C        0.44458    0.96140    0.21770    1.000
    H136     H        0.45990    0.91670    0.23650    1.000
    N14      N        0.69726    0.78330    0.15350    1.000
    C200     C        0.56017    0.23820    0.16610    1.000
    H137     H        0.56280    0.15540    0.16770    1.000
    C201     C        0.43052    0.43760    0.98780    1.000
    N15      N        0.54347    0.82250    0.49380    1.000
    O61      O        0.25324    0.19650    0.08420    1.000
    C202     C        0.42492    0.08760    0.14290    1.000
    H138     H        0.42710    0.13150    0.11100    1.000
    C203     C        0.63102    0.66500    0.29080    1.000
    H139     H        0.61660    0.69920    0.26200    1.000
    H140     H        0.63900    0.72910    0.31570    1.000
    C204     C        0.55289    0.47830    0.16120    1.000
    H141     H        0.55010    0.56090    0.15810    1.000
    C205     C        0.64854    0.37130    0.43750    1.000
    O62      O        0.47892    0.10780    0.11120    1.000
    C206     C        0.57182    0.43020    0.20440    1.000
    C207     C        0.33830    0.19280    0.22310    1.000
    H142     H        0.34920    0.23000    0.25370    1.000
    C208     C        0.57601    0.30560    0.20690    1.000
    H143     H        0.58900    0.27030    0.23520    1.000
    C209     C        0.59073    0.61830    0.34790    1.000
    H144     H        0.57710    0.65410    0.31820    1.000
    H145     H        0.58080    0.55430    0.36480    1.000
    C210     C        0.58108    0.74550    0.42130    1.000
    C211     C        0.61693    0.56750    0.32400    1.000
    C212     C        0.55183    0.71800    0.41070    1.000
    H146     H        0.54420    0.67260    0.37970    1.000
    C213     C        0.33040    0.02830    0.16090    1.000
    H147     H        0.33630    0.95470    0.14820    1.000
    C214     C        0.41886    0.96500    0.23800    1.000
    H148     H        0.41670    0.92490    0.27100    1.000
    C215     C        0.63849    0.27870    0.46560    1.000
    H149     H        0.61900    0.25690    0.45820    1.000
    C216     C        0.66726    0.66960    0.23080    1.000
    C217     C        0.64107    0.52390    0.37050    1.000
    H150     H        0.65770    0.49520    0.35420    1.000
    H151     H        0.64750    0.58970    0.39570    1.000
    C218     C        0.67820    0.84020    0.17800    1.000
    H152     H        0.67450    0.92020    0.16830    1.000
    C219     C        0.53415    0.76000    0.44770    1.000
    H153     H        0.51430    0.74350    0.43980    1.000
    C220     C        0.31330    0.24570    0.19460    1.000
    H154     H        0.30810    0.32150    0.20590    1.000
    C221     C        0.53806    0.40040    0.12230    1.000
    H155     H        0.52510    0.43340    0.09320    1.000
    C222     C        0.60603    0.46320    0.28710    1.000
    H156     H        0.62220    0.42430    0.27300    1.000
    H157     H        0.59670    0.40460    0.30840    1.000
    C223     C        0.46681    0.27090    0.00090    1.000
    N16      N        0.68553    0.24000    0.51620    1.000
    C224     C        0.65702    0.21710    0.50490    1.000
    H158     H        0.64940    0.15620    0.52480    1.000
    C225     C        0.57243    0.85150    0.50250    1.000
    H159     H        0.57960    0.89770    0.53360    1.000
    C226     C        0.47716    0.02740    0.14680    1.000
    C227     C        0.68780    0.60920    0.20610    1.000
    H160     H        0.69190    0.52890    0.21450    1.000
    C228     C        0.66284    0.79000    0.21820    1.000
    H161     H        0.65010    0.83610    0.23580    1.000
    C229     C        0.67788    0.39810    0.44890    1.000
    H162     H        0.68580    0.46030    0.43030    1.000
    C230     C        0.70220    0.66970    0.16880    1.000
    H163     H        0.71630    0.62800    0.15310    1.000
    C231     C        0.69497    0.33100    0.48820    1.000
    H164     H        0.71460    0.35050    0.49590    1.000
    C232     C        0.26939    0.25090    0.12270    1.000
    C233     C        0.40910    0.50300    0.95290    1.000
    H165     H        0.40510    0.58320    0.96020    1.000
    C234     C        0.39460    0.44400    0.90800    1.000
    C235     C        0.40120    0.33240    0.89110    1.000
    H166     H        0.39180    0.30100    0.85760    1.000
    C236     C        0.30710    0.87620    0.94170    1.000
    C237     C        0.32440    0.77990    0.92580    1.000
    C238     C        0.34200    0.80060    0.88520    1.000
    H167     H        0.34280    0.87650    0.86930    1.000
    C239     C        0.35860    0.70730    0.86860    1.000
    H168     H        0.37080    0.72030    0.84190    1.000
    C240     C        0.35680    0.59530    0.89190    1.000
    C241     C        0.33980    0.57430    0.93300    1.000
    H169     H        0.33910    0.49840    0.94900    1.000
    C242     C        0.32360    0.66850    0.95030    1.000
    H170     H        0.31220    0.65630    0.97840    1.000
    O63      O        0.37200    0.49980    0.87260    1.000
    O64      O        0.30560    0.97790    0.91140    1.000
    O65      O        0.29230    0.86610    0.98680    1.000
    C243     C        0.40090    0.47200    0.96490    1.000
    H171     H        0.39280    0.53970    0.97940    1.000
    C244     C        0.38500    0.40900    0.92300    1.000
    C245     C        0.39390    0.30200    0.90720    1.000
    H172     H        0.38100    0.25200    0.88460    1.000
    C246     C        0.31350    0.90020    0.90980    1.000
    C247     C        0.32460    0.78360    0.90580    1.000
    C248     C        0.35240    0.76860    0.89360    1.000
    H173     H        0.36350    0.83510    0.88650    1.000
    C249     C        0.36390    0.65460    0.89200    1.000
    H174     H        0.38280    0.64390    0.88430    1.000
    C250     C        0.34720    0.55620    0.90200    1.000
    C251     C        0.31950    0.57040    0.91600    1.000
    H175     H        0.30900    0.50390    0.92510    1.000
    C252     C        0.30780    0.68360    0.91620    1.000
    H176     H        0.28880    0.69390    0.92320    1.000
    O66      O        0.35770    0.44050    0.89610    1.000
    O67      O        0.28460    0.92400    0.90440    1.000
    O68      O        0.33030    0.99940    0.92180    1.000
    Cd9      Cd       0.01301    0.33966    0.56095    1.000
    Cd10     Cd       0.71811    0.13406    0.57965    1.000
    O69      O        0.87073    0.47220    0.73420    1.000
    O70      O        0.10077    0.79240    0.88930    1.000
    O71      O        0.99642    0.54400    0.66470    1.000
    C253     C        0.92239    0.23510    0.42490    1.000
    O72      O        0.12967    0.07040    0.90050    1.000
    O73      O        0.98213    0.16980    0.53700    1.000
    O74      O        0.15356    0.89080    0.76610    1.000
    O75      O        0.97327    0.33520    0.48790    1.000
    O76      O        0.08567    0.99220    0.74170    1.000
    C254     C        0.93823    0.17440    0.47020    1.000
    O77      O        0.76285    0.14530    0.63850    1.000
    C255     C        0.84600    0.41550    0.70420    1.000
    N17      N        0.04105    0.21800    0.62380    1.000
    C256     C        0.79638    0.30700    0.65130    1.000
    C257     C        0.09083    0.68380    0.96820    1.000
    H177     H        0.11030    0.66110    0.97550    1.000
    C258     C        0.80490    0.41560    0.63550    1.000
    H178     H        0.79330    0.45500    0.60630    1.000
    C259     C        0.89616    0.47170    0.70960    1.000
    C260     C        0.94838    0.47720    0.66970    1.000
    C261     C        0.89857    0.41130    0.66210    1.000
    H179     H        0.88280    0.36990    0.64290    1.000
    C262     C        0.94458    0.53860    0.71770    1.000
    H180     H        0.95990    0.58330    0.73650    1.000
    N18      N        0.19726    0.71670    0.65350    1.000
    C263     C        0.06017    0.26180    0.66610    1.000
    H181     H        0.06280    0.34460    0.66770    1.000
    C264     C        0.93052    0.06240    0.48780    1.000
    N19      N        0.04347    0.67750    0.99380    1.000
    O78      O        0.75324    0.30350    0.58420    1.000
    C265     C        0.92492    0.41240    0.64290    1.000
    H182     H        0.92710    0.36850    0.61100    1.000
    C266     C        0.13102    0.83500    0.79080    1.000
    H183     H        0.11660    0.80080    0.76200    1.000
    H184     H        0.13900    0.77090    0.81570    1.000
    C267     C        0.05289    0.02170    0.66120    1.000
    H185     H        0.05010    0.93910    0.65810    1.000
    C268     C        0.14854    0.12870    0.93750    1.000
    O79      O        0.97892    0.39220    0.61120    1.000
    C269     C        0.07182    0.06980    0.70440    1.000
    C270     C        0.83830    0.30720    0.72310    1.000
    H186     H        0.84920    0.27000    0.75370    1.000
    C271     C        0.07601    0.19440    0.70690    1.000
    H187     H        0.08900    0.22970    0.73520    1.000
    C272     C        0.09073    0.88170    0.84790    1.000
    H188     H        0.07710    0.84590    0.81820    1.000
    H189     H        0.08080    0.94570    0.86480    1.000
    C273     C        0.08108    0.75450    0.92130    1.000
    C274     C        0.11693    0.93250    0.82400    1.000
    C275     C        0.05183    0.78200    0.91070    1.000
    H190     H        0.04420    0.82740    0.87970    1.000
    C276     C        0.83040    0.47170    0.66090    1.000
    H191     H        0.83630    0.54530    0.64820    1.000
    C277     C        0.91886    0.53500    0.73800    1.000
    H192     H        0.91670    0.57510    0.77100    1.000
    C278     C        0.13849    0.22130    0.96560    1.000
    H193     H        0.11900    0.24310    0.95820    1.000
    C279     C        0.16726    0.83040    0.73080    1.000
    C280     C        0.14107    0.97610    0.87050    1.000
    H194     H        0.15770    0.00480    0.85420    1.000
    H195     H        0.14750    0.91030    0.89570    1.000
    C281     C        0.17820    0.65980    0.67800    1.000
    H196     H        0.17450    0.57980    0.66830    1.000
    C282     C        0.03415    0.74000    0.94770    1.000
    H197     H        0.01430    0.75650    0.93980    1.000
    C283     C        0.81330    0.25430    0.69460    1.000
    H198     H        0.80810    0.17850    0.70590    1.000
    C284     C        0.03806    0.09960    0.62230    1.000
    H199     H        0.02510    0.06660    0.59320    1.000
    C285     C        0.10603    0.03680    0.78710    1.000
    H200     H        0.12220    0.07570    0.77300    1.000
    H201     H        0.09670    0.09540    0.80840    1.000
    C286     C        0.96681    0.22910    0.50090    1.000
    N20      N        0.18553    0.26000    0.01620    1.000
    C287     C        0.15702    0.28290    0.00490    1.000
    H202     H        0.14940    0.34380    0.02480    1.000
    C288     C        0.07243    0.64850    0.00250    1.000
    H203     H        0.07960    0.60230    0.03360    1.000
    C289     C        0.97716    0.47260    0.64680    1.000
    C290     C        0.18780    0.89080    0.70610    1.000
    H204     H        0.19190    0.97110    0.71450    1.000
    C291     C        0.16284    0.71000    0.71820    1.000
    H205     H        0.15010    0.66390    0.73580    1.000
    C292     C        0.17788    0.10190    0.94890    1.000
    H206     H        0.18580    0.03970    0.93030    1.000
    C293     C        0.20220    0.83030    0.66880    1.000
    H207     H        0.21630    0.87200    0.65310    1.000
    C294     C        0.19497    0.16900    0.98820    1.000
    H208     H        0.21460    0.14950    0.99590    1.000
    C295     C        0.76939    0.24910    0.62270    1.000
    C296     C        0.90910    0.99700    0.45290    1.000
    H209     H        0.90510    0.91680    0.46020    1.000
    C297     C        0.89460    0.05600    0.40800    1.000
    C298     C        0.90120    0.16760    0.39110    1.000
    H210     H        0.89180    0.19900    0.35760    1.000
    C299     C        0.80710    0.62380    0.44170    1.000
    C300     C        0.82440    0.72010    0.42580    1.000
    C301     C        0.84200    0.69940    0.38520    1.000
    H211     H        0.84280    0.62350    0.36930    1.000
    C302     C        0.85860    0.79270    0.36860    1.000
    H212     H        0.87080    0.77970    0.34190    1.000
    C303     C        0.85680    0.90470    0.39190    1.000
    C304     C        0.83980    0.92570    0.43300    1.000
    H213     H        0.83910    0.00160    0.44900    1.000
    C305     C        0.82360    0.83150    0.45030    1.000
    H214     H        0.81220    0.84370    0.47840    1.000
    O80      O        0.87200    0.00020    0.37260    1.000
    O81      O        0.80560    0.52210    0.41140    1.000
    O82      O        0.79230    0.63390    0.48680    1.000
    C306     C        0.90090    0.02800    0.46490    1.000
    H215     H        0.89280    0.96030    0.47940    1.000
    C307     C        0.88500    0.09100    0.42300    1.000
    C308     C        0.89390    0.19800    0.40720    1.000
    H216     H        0.88100    0.24800    0.38460    1.000
    C309     C        0.81350    0.59980    0.40980    1.000
    C310     C        0.82460    0.71640    0.40580    1.000
    C311     C        0.85240    0.73140    0.39360    1.000
    H217     H        0.86350    0.66490    0.38650    1.000
    C312     C        0.86390    0.84540    0.39200    1.000
    H218     H        0.88280    0.85610    0.38430    1.000
    C313     C        0.84720    0.94380    0.40200    1.000
    C314     C        0.81950    0.92960    0.41600    1.000
    H219     H        0.80900    0.99610    0.42510    1.000
    C315     C        0.80780    0.81640    0.41620    1.000
    H220     H        0.78880    0.80610    0.42320    1.000
    O83      O        0.85770    0.05950    0.39610    1.000
    O84      O        0.78460    0.57600    0.40440    1.000
    O85      O        0.83030    0.50060    0.42180    1.000
    Cd11     Cd       0.51301    0.83966    0.56095    1.000
    Cd12     Cd       0.21811    0.63406    0.57965    1.000
    O86      O        0.37073    0.97220    0.73420    1.000
    O87      O        0.60077    0.29240    0.88930    1.000
    O88      O        0.49642    0.04400    0.66470    1.000
    C316     C        0.42239    0.73510    0.42490    1.000
    O89      O        0.62967    0.57040    0.90050    1.000
    O90      O        0.48213    0.66980    0.53700    1.000
    O91      O        0.65356    0.39080    0.76610    1.000
    O92      O        0.47327    0.83520    0.48790    1.000
    O93      O        0.58567    0.49220    0.74170    1.000
    C317     C        0.43823    0.67440    0.47020    1.000
    O94      O        0.26285    0.64530    0.63850    1.000
    C318     C        0.34600    0.91550    0.70420    1.000
    N21      N        0.54105    0.71800    0.62380    1.000
    C319     C        0.29638    0.80700    0.65130    1.000
    C320     C        0.59083    0.18380    0.96820    1.000
    H221     H        0.61030    0.16110    0.97550    1.000
    C321     C        0.30490    0.91560    0.63550    1.000
    H222     H        0.29330    0.95500    0.60630    1.000
    C322     C        0.39616    0.97170    0.70960    1.000
    C323     C        0.44838    0.97720    0.66970    1.000
    C324     C        0.39857    0.91130    0.66210    1.000
    H223     H        0.38280    0.86990    0.64290    1.000
    C325     C        0.44458    0.03860    0.71770    1.000
    H224     H        0.45990    0.08330    0.73650    1.000
    N22      N        0.69726    0.21670    0.65350    1.000
    C326     C        0.56017    0.76180    0.66610    1.000
    H225     H        0.56280    0.84460    0.66770    1.000
    C327     C        0.43052    0.56240    0.48780    1.000
    N23      N        0.54347    0.17750    0.99380    1.000
    O95      O        0.25324    0.80350    0.58420    1.000
    C328     C        0.42492    0.91240    0.64290    1.000
    H226     H        0.42710    0.86850    0.61100    1.000
    C329     C        0.63102    0.33500    0.79080    1.000
    H227     H        0.61660    0.30080    0.76200    1.000
    H228     H        0.63900    0.27090    0.81570    1.000
    C330     C        0.55289    0.52170    0.66120    1.000
    H229     H        0.55010    0.43910    0.65810    1.000
    C331     C        0.64854    0.62870    0.93750    1.000
    O96      O        0.47892    0.89220    0.61120    1.000
    C332     C        0.57182    0.56980    0.70440    1.000
    C333     C        0.33830    0.80720    0.72310    1.000
    H230     H        0.34920    0.77000    0.75370    1.000
    C334     C        0.57601    0.69440    0.70690    1.000
    H231     H        0.58900    0.72970    0.73520    1.000
    C335     C        0.59073    0.38170    0.84790    1.000
    H232     H        0.57710    0.34590    0.81820    1.000
    H233     H        0.58080    0.44570    0.86480    1.000
    C336     C        0.58108    0.25450    0.92130    1.000
    C337     C        0.61693    0.43250    0.82400    1.000
    C338     C        0.55183    0.28200    0.91070    1.000
    H234     H        0.54420    0.32740    0.87970    1.000
    C339     C        0.33040    0.97170    0.66090    1.000
    H235     H        0.33630    0.04530    0.64820    1.000
    C340     C        0.41886    0.03500    0.73800    1.000
    H236     H        0.41670    0.07510    0.77100    1.000
    C341     C        0.63849    0.72130    0.96560    1.000
    H237     H        0.61900    0.74310    0.95820    1.000
    C342     C        0.66726    0.33040    0.73080    1.000
    C343     C        0.64107    0.47610    0.87050    1.000
    H238     H        0.65770    0.50480    0.85420    1.000
    H239     H        0.64750    0.41030    0.89570    1.000
    C344     C        0.67820    0.15980    0.67800    1.000
    H240     H        0.67450    0.07980    0.66830    1.000
    C345     C        0.53415    0.24000    0.94770    1.000
    H241     H        0.51430    0.25650    0.93980    1.000
    C346     C        0.31330    0.75430    0.69460    1.000
    H242     H        0.30810    0.67850    0.70590    1.000
    C347     C        0.53806    0.59960    0.62230    1.000
    H243     H        0.52510    0.56660    0.59320    1.000
    C348     C        0.60603    0.53680    0.78710    1.000
    H244     H        0.62220    0.57570    0.77300    1.000
    H245     H        0.59670    0.59540    0.80840    1.000
    C349     C        0.46681    0.72910    0.50090    1.000
    N24      N        0.68553    0.76000    0.01620    1.000
    C350     C        0.65702    0.78290    0.00490    1.000
    H246     H        0.64940    0.84380    0.02480    1.000
    C351     C        0.57243    0.14850    0.00250    1.000
    H247     H        0.57960    0.10230    0.03360    1.000
    C352     C        0.47716    0.97260    0.64680    1.000
    C353     C        0.68780    0.39080    0.70610    1.000
    H248     H        0.69190    0.47110    0.71450    1.000
    C354     C        0.66284    0.21000    0.71820    1.000
    H249     H        0.65010    0.16390    0.73580    1.000
    C355     C        0.67788    0.60190    0.94890    1.000
    H250     H        0.68580    0.53970    0.93030    1.000
    C356     C        0.70220    0.33030    0.66880    1.000
    H251     H        0.71630    0.37200    0.65310    1.000
    C357     C        0.69497    0.66900    0.98820    1.000
    H252     H        0.71460    0.64950    0.99590    1.000
    C358     C        0.26939    0.74910    0.62270    1.000
    C359     C        0.40910    0.49700    0.45290    1.000
    H253     H        0.40510    0.41680    0.46020    1.000
    C360     C        0.39460    0.55600    0.40800    1.000
    C361     C        0.40120    0.66760    0.39110    1.000
    H254     H        0.39180    0.69900    0.35760    1.000
    C362     C        0.30710    0.12380    0.44170    1.000
    C363     C        0.32440    0.22010    0.42580    1.000
    C364     C        0.34200    0.19940    0.38520    1.000
    H255     H        0.34280    0.12350    0.36930    1.000
    C365     C        0.35860    0.29270    0.36860    1.000
    H256     H        0.37080    0.27970    0.34190    1.000
    C366     C        0.35680    0.40470    0.39190    1.000
    C367     C        0.33980    0.42570    0.43300    1.000
    H257     H        0.33910    0.50160    0.44900    1.000
    C368     C        0.32360    0.33150    0.45030    1.000
    H258     H        0.31220    0.34370    0.47840    1.000
    O97      O        0.37200    0.50020    0.37260    1.000
    O98      O        0.30560    0.02210    0.41140    1.000
    O99      O        0.29230    0.13390    0.48680    1.000
    C369     C        0.40090    0.52800    0.46490    1.000
    H259     H        0.39280    0.46030    0.47940    1.000
    C370     C        0.38500    0.59100    0.42300    1.000
    C371     C        0.39390    0.69800    0.40720    1.000
    H260     H        0.38100    0.74800    0.38460    1.000
    C372     C        0.31350    0.09980    0.40980    1.000
    C373     C        0.32460    0.21640    0.40580    1.000
    C374     C        0.35240    0.23140    0.39360    1.000
    H261     H        0.36350    0.16490    0.38650    1.000
    C375     C        0.36390    0.34540    0.39200    1.000
    H262     H        0.38280    0.35610    0.38430    1.000
    C376     C        0.34720    0.44380    0.40200    1.000
    C377     C        0.31950    0.42960    0.41600    1.000
    H263     H        0.30900    0.49610    0.42510    1.000
    C378     C        0.30780    0.31640    0.41620    1.000
    H264     H        0.28880    0.30610    0.42320    1.000
    O100     O        0.35770    0.55950    0.39610    1.000
    O101     O        0.28460    0.07600    0.40440    1.000
    O102     O        0.33030    0.00060    0.42180    1.000
    Cd13     Cd       0.98699    0.33966    0.93905    1.000
    Cd14     Cd       0.28189    0.13406    0.92035    1.000
    O103     O        0.12927    0.47220    0.76580    1.000
    O104     O        0.89923    0.79240    0.61070    1.000
    O105     O        0.00358    0.54400    0.83530    1.000
    C379     C        0.07761    0.23510    0.07510    1.000
    O106     O        0.87033    0.07040    0.59950    1.000
    O107     O        0.01787    0.16980    0.96300    1.000
    O108     O        0.84644    0.89080    0.73390    1.000
    O109     O        0.02673    0.33520    0.01210    1.000
    O110     O        0.91433    0.99220    0.75830    1.000
    C380     C        0.06177    0.17440    0.02980    1.000
    O111     O        0.23715    0.14530    0.86150    1.000
    C381     C        0.15400    0.41550    0.79580    1.000
    N25      N        0.95895    0.21800    0.87620    1.000
    C382     C        0.20362    0.30700    0.84870    1.000
    C383     C        0.90917    0.68380    0.53180    1.000
    H265     H        0.88970    0.66110    0.52450    1.000
    C384     C        0.19510    0.41560    0.86450    1.000
    H266     H        0.20670    0.45500    0.89370    1.000
    C385     C        0.10384    0.47170    0.79040    1.000
    C386     C        0.05162    0.47720    0.83030    1.000
    C387     C        0.10143    0.41130    0.83790    1.000
    H267     H        0.11720    0.36990    0.85710    1.000
    C388     C        0.05542    0.53860    0.78230    1.000
    H268     H        0.04010    0.58330    0.76350    1.000
    N26      N        0.80274    0.71670    0.84650    1.000
    C389     C        0.93983    0.26180    0.83390    1.000
    H269     H        0.93720    0.34460    0.83230    1.000
    C390     C        0.06948    0.06240    0.01220    1.000
    N27      N        0.95653    0.67750    0.50620    1.000
    O112     O        0.24676    0.30350    0.91580    1.000
    C391     C        0.07508    0.41240    0.85710    1.000
    H270     H        0.07290    0.36850    0.88900    1.000
    C392     C        0.86898    0.83500    0.70920    1.000
    H271     H        0.88340    0.80080    0.73800    1.000
    H272     H        0.86100    0.77090    0.68430    1.000
    C393     C        0.94711    0.02170    0.83880    1.000
    H273     H        0.94990    0.93910    0.84190    1.000
    C394     C        0.85146    0.12870    0.56250    1.000
    O113     O        0.02108    0.39220    0.88880    1.000
    C395     C        0.92818    0.06980    0.79560    1.000
    C396     C        0.16170    0.30720    0.77690    1.000
    H274     H        0.15080    0.27000    0.74630    1.000
    C397     C        0.92399    0.19440    0.79310    1.000
    H275     H        0.91100    0.22970    0.76480    1.000
    C398     C        0.90927    0.88170    0.65210    1.000
    H276     H        0.92290    0.84590    0.68180    1.000
    H277     H        0.91920    0.94570    0.63520    1.000
    C399     C        0.91892    0.75450    0.57870    1.000
    C400     C        0.88307    0.93250    0.67600    1.000
    C401     C        0.94817    0.78200    0.58930    1.000
    H278     H        0.95580    0.82740    0.62030    1.000
    C402     C        0.16960    0.47170    0.83910    1.000
    H279     H        0.16370    0.54530    0.85180    1.000
    C403     C        0.08114    0.53500    0.76200    1.000
    H280     H        0.08330    0.57510    0.72900    1.000
    C404     C        0.86151    0.22130    0.53440    1.000
    H281     H        0.88100    0.24310    0.54180    1.000
    C405     C        0.83274    0.83040    0.76920    1.000
    C406     C        0.85893    0.97610    0.62950    1.000
    H282     H        0.84230    0.00480    0.64580    1.000
    H283     H        0.85250    0.91030    0.60430    1.000
    C407     C        0.82180    0.65980    0.82200    1.000
    H284     H        0.82550    0.57980    0.83170    1.000
    C408     C        0.96585    0.74000    0.55230    1.000
    H285     H        0.98570    0.75650    0.56020    1.000
    C409     C        0.18670    0.25430    0.80540    1.000
    H286     H        0.19190    0.17850    0.79410    1.000
    C410     C        0.96194    0.09960    0.87770    1.000
    H287     H        0.97490    0.06660    0.90680    1.000
    C411     C        0.89397    0.03680    0.71290    1.000
    H288     H        0.87780    0.07570    0.72700    1.000
    H289     H        0.90330    0.09540    0.69160    1.000
    C412     C        0.03319    0.22910    0.99910    1.000
    N28      N        0.81447    0.26000    0.48380    1.000
    C413     C        0.84298    0.28290    0.49510    1.000
    H290     H        0.85060    0.34380    0.47520    1.000
    C414     C        0.92757    0.64850    0.49750    1.000
    H291     H        0.92040    0.60230    0.46640    1.000
    C415     C        0.02284    0.47260    0.85320    1.000
    C416     C        0.81220    0.89080    0.79390    1.000
    H292     H        0.80810    0.97110    0.78550    1.000
    C417     C        0.83716    0.71000    0.78180    1.000
    H293     H        0.84990    0.66390    0.76420    1.000
    C418     C        0.82212    0.10190    0.55110    1.000
    H294     H        0.81420    0.03970    0.56970    1.000
    C419     C        0.79780    0.83030    0.83120    1.000
    H295     H        0.78370    0.87200    0.84690    1.000
    C420     C        0.80503    0.16900    0.51180    1.000
    H296     H        0.78540    0.14950    0.50410    1.000
    C421     C        0.23061    0.24910    0.87730    1.000
    C422     C        0.09090    0.99700    0.04710    1.000
    H297     H        0.09490    0.91680    0.03980    1.000
    C423     C        0.10540    0.05600    0.09200    1.000
    C424     C        0.09880    0.16760    0.10890    1.000
    H298     H        0.10820    0.19900    0.14240    1.000
    C425     C        0.19290    0.62380    0.05830    1.000
    C426     C        0.17560    0.72010    0.07420    1.000
    C427     C        0.15800    0.69940    0.11480    1.000
    H299     H        0.15720    0.62350    0.13070    1.000
    C428     C        0.14140    0.79270    0.13140    1.000
    H300     H        0.12920    0.77970    0.15810    1.000
    C429     C        0.14320    0.90470    0.10810    1.000
    C430     C        0.16020    0.92570    0.06700    1.000
    H301     H        0.16090    0.00160    0.05100    1.000
    C431     C        0.17640    0.83150    0.04970    1.000
    H302     H        0.18780    0.84370    0.02160    1.000
    O114     O        0.12800    0.00020    0.12740    1.000
    O115     O        0.19440    0.52210    0.08860    1.000
    O116     O        0.20770    0.63390    0.01320    1.000
    C432     C        0.09910    0.02800    0.03510    1.000
    H303     H        0.10720    0.96030    0.02060    1.000
    C433     C        0.11500    0.09100    0.07700    1.000
    C434     C        0.10610    0.19800    0.09280    1.000
    H304     H        0.11900    0.24800    0.11540    1.000
    C435     C        0.18650    0.59980    0.09020    1.000
    C436     C        0.17540    0.71640    0.09420    1.000
    C437     C        0.14760    0.73140    0.10640    1.000
    H305     H        0.13650    0.66490    0.11350    1.000
    C438     C        0.13610    0.84540    0.10800    1.000
    H306     H        0.11720    0.85610    0.11570    1.000
    C439     C        0.15280    0.94380    0.09800    1.000
    C440     C        0.18050    0.92960    0.08400    1.000
    H307     H        0.19100    0.99610    0.07490    1.000
    C441     C        0.19220    0.81640    0.08380    1.000
    H308     H        0.21120    0.80610    0.07680    1.000
    O117     O        0.14230    0.05950    0.10390    1.000
    O118     O        0.21540    0.57600    0.09560    1.000
    O119     O        0.16970    0.50060    0.07820    1.000
    Cd15     Cd       0.48699    0.83966    0.93905    1.000
    Cd16     Cd       0.78189    0.63406    0.92035    1.000
    O120     O        0.62927    0.97220    0.76580    1.000
    O121     O        0.39923    0.29240    0.61070    1.000
    O122     O        0.50358    0.04400    0.83530    1.000
    C442     C        0.57761    0.73510    0.07510    1.000
    O123     O        0.37033    0.57040    0.59950    1.000
    O124     O        0.51787    0.66980    0.96300    1.000
    O125     O        0.34644    0.39080    0.73390    1.000
    O126     O        0.52673    0.83520    0.01210    1.000
    O127     O        0.41433    0.49220    0.75830    1.000
    C443     C        0.56177    0.67440    0.02980    1.000
    O128     O        0.73715    0.64530    0.86150    1.000
    C444     C        0.65400    0.91550    0.79580    1.000
    N29      N        0.45895    0.71800    0.87620    1.000
    C445     C        0.70362    0.80700    0.84870    1.000
    C446     C        0.40917    0.18380    0.53180    1.000
    H309     H        0.38970    0.16110    0.52450    1.000
    C447     C        0.69510    0.91560    0.86450    1.000
    H310     H        0.70670    0.95500    0.89370    1.000
    C448     C        0.60384    0.97170    0.79040    1.000
    C449     C        0.55162    0.97720    0.83030    1.000
    C450     C        0.60143    0.91130    0.83790    1.000
    H311     H        0.61720    0.86990    0.85710    1.000
    C451     C        0.55542    0.03860    0.78230    1.000
    H312     H        0.54010    0.08330    0.76350    1.000
    N30      N        0.30274    0.21670    0.84650    1.000
    C452     C        0.43983    0.76180    0.83390    1.000
    H313     H        0.43720    0.84460    0.83230    1.000
    C453     C        0.56948    0.56240    0.01220    1.000
    N31      N        0.45653    0.17750    0.50620    1.000
    O129     O        0.74676    0.80350    0.91580    1.000
    C454     C        0.57508    0.91240    0.85710    1.000
    H314     H        0.57290    0.86850    0.88900    1.000
    C455     C        0.36898    0.33500    0.70920    1.000
    H315     H        0.38340    0.30080    0.73800    1.000
    H316     H        0.36100    0.27090    0.68430    1.000
    C456     C        0.44711    0.52170    0.83880    1.000
    H317     H        0.44990    0.43910    0.84190    1.000
    C457     C        0.35146    0.62870    0.56250    1.000
    O130     O        0.52108    0.89220    0.88880    1.000
    C458     C        0.42818    0.56980    0.79560    1.000
    C459     C        0.66170    0.80720    0.77690    1.000
    H318     H        0.65080    0.77000    0.74630    1.000
    C460     C        0.42399    0.69440    0.79310    1.000
    H319     H        0.41100    0.72970    0.76480    1.000
    C461     C        0.40927    0.38170    0.65210    1.000
    H320     H        0.42290    0.34590    0.68180    1.000
    H321     H        0.41920    0.44570    0.63520    1.000
    C462     C        0.41892    0.25450    0.57870    1.000
    C463     C        0.38307    0.43250    0.67600    1.000
    C464     C        0.44817    0.28200    0.58930    1.000
    H322     H        0.45580    0.32740    0.62030    1.000
    C465     C        0.66960    0.97170    0.83910    1.000
    H323     H        0.66370    0.04530    0.85180    1.000
    C466     C        0.58114    0.03500    0.76200    1.000
    H324     H        0.58330    0.07510    0.72900    1.000
    C467     C        0.36151    0.72130    0.53440    1.000
    H325     H        0.38100    0.74310    0.54180    1.000
    C468     C        0.33274    0.33040    0.76920    1.000
    C469     C        0.35893    0.47610    0.62950    1.000
    H326     H        0.34230    0.50480    0.64580    1.000
    H327     H        0.35250    0.41030    0.60430    1.000
    C470     C        0.32180    0.15980    0.82200    1.000
    H328     H        0.32550    0.07980    0.83170    1.000
    C471     C        0.46585    0.24000    0.55230    1.000
    H329     H        0.48570    0.25650    0.56020    1.000
    C472     C        0.68670    0.75430    0.80540    1.000
    H330     H        0.69190    0.67850    0.79410    1.000
    C473     C        0.46194    0.59960    0.87770    1.000
    H331     H        0.47490    0.56660    0.90680    1.000
    C474     C        0.39397    0.53680    0.71290    1.000
    H332     H        0.37780    0.57570    0.72700    1.000
    H333     H        0.40330    0.59540    0.69160    1.000
    C475     C        0.53319    0.72910    0.99910    1.000
    N32      N        0.31447    0.76000    0.48380    1.000
    C476     C        0.34298    0.78290    0.49510    1.000
    H334     H        0.35060    0.84380    0.47520    1.000
    C477     C        0.42757    0.14850    0.49750    1.000
    H335     H        0.42040    0.10230    0.46640    1.000
    C478     C        0.52284    0.97260    0.85320    1.000
    C479     C        0.31220    0.39080    0.79390    1.000
    H336     H        0.30810    0.47110    0.78550    1.000
    C480     C        0.33716    0.21000    0.78180    1.000
    H337     H        0.34990    0.16390    0.76420    1.000
    C481     C        0.32212    0.60190    0.55110    1.000
    H338     H        0.31420    0.53970    0.56970    1.000
    C482     C        0.29780    0.33030    0.83120    1.000
    H339     H        0.28370    0.37200    0.84690    1.000
    C483     C        0.30503    0.66900    0.51180    1.000
    H340     H        0.28540    0.64950    0.50410    1.000
    C484     C        0.73061    0.74910    0.87730    1.000
    C485     C        0.59090    0.49700    0.04710    1.000
    H341     H        0.59490    0.41680    0.03980    1.000
    C486     C        0.60540    0.55600    0.09200    1.000
    C487     C        0.59880    0.66760    0.10890    1.000
    H342     H        0.60820    0.69900    0.14240    1.000
    C488     C        0.69290    0.12380    0.05830    1.000
    C489     C        0.67560    0.22010    0.07420    1.000
    C490     C        0.65800    0.19940    0.11480    1.000
    H343     H        0.65720    0.12350    0.13070    1.000
    C491     C        0.64140    0.29270    0.13140    1.000
    H344     H        0.62920    0.27970    0.15810    1.000
    C492     C        0.64320    0.40470    0.10810    1.000
    C493     C        0.66020    0.42570    0.06700    1.000
    H345     H        0.66090    0.50160    0.05100    1.000
    C494     C        0.67640    0.33150    0.04970    1.000
    H346     H        0.68780    0.34370    0.02160    1.000
    O131     O        0.62800    0.50020    0.12740    1.000
    O132     O        0.69440    0.02210    0.08860    1.000
    O133     O        0.70770    0.13390    0.01320    1.000
    C495     C        0.59910    0.52800    0.03510    1.000
    H347     H        0.60720    0.46030    0.02060    1.000
    C496     C        0.61500    0.59100    0.07700    1.000
    C497     C        0.60610    0.69800    0.09280    1.000
    H348     H        0.61900    0.74800    0.11540    1.000
    C498     C        0.68650    0.09980    0.09020    1.000
    C499     C        0.67540    0.21640    0.09420    1.000
    C500     C        0.64760    0.23140    0.10640    1.000
    H349     H        0.63650    0.16490    0.11350    1.000
    C501     C        0.63610    0.34540    0.10800    1.000
    H350     H        0.61720    0.35610    0.11570    1.000
    C502     C        0.65280    0.44380    0.09800    1.000
    C503     C        0.68050    0.42960    0.08400    1.000
    H351     H        0.69100    0.49610    0.07490    1.000
    C504     C        0.69220    0.31640    0.08380    1.000
    H352     H        0.71120    0.30610    0.07680    1.000
    O134     O        0.64230    0.55950    0.10390    1.000
    O135     O        0.71540    0.07600    0.09560    1.000
    O136     O        0.66970    0.00060    0.07820    1.000
