# CIF file generated by openbabel 3.1.0, see https://openbabel.org
data_I
_chemical_name_common 'MOGNAY_clean'
_cell_length_a 6.722
_cell_length_b 14.239
_cell_length_c 22.88
_cell_angle_alpha 90
_cell_angle_beta 90
_cell_angle_gamma 90
_space_group_name_H-M_alt 'P 1'
_space_group_name_Hall 'P 1'
loop_
    _symmetry_equiv_pos_as_xyz
    x,y,z
loop_
    _atom_site_label
    _atom_site_type_symbol
    _atom_site_fract_x
    _atom_site_fract_y
    _atom_site_fract_z
    _atom_site_occupancy
    Tb1      Tb       0.75000    0.95243    0.64044    1.000
    Tb2      Tb       0.25000    0.54757    0.14044    1.000
    Tb3      Tb       0.25000    0.04757    0.35956    1.000
    Tb4      Tb       0.75000    0.45243    0.85956    1.000
    H1       H        0.75000    0.98730    0.79470    1.000
    H2       H        0.75000    0.90740    0.88160    1.000
    H3       H        0.75000    0.74790    0.88310    1.000
    H4       H        0.75000    0.76920    0.53540    1.000
    H5       H        0.75000    0.73880    0.43740    1.000
    H6       H        0.75000    0.86220    0.37120    1.000
    H7       H        0.25000    0.51270    0.29470    1.000
    H8       H        0.25000    0.59260    0.38160    1.000
    H9       H        0.25000    0.75210    0.38310    1.000
    H10      H        0.25000    0.73080    0.03540    1.000
    H11      H        0.25000    0.76120    0.93740    1.000
    H12      H        0.25000    0.63780    0.87120    1.000
    H13      H        0.25000    0.01270    0.20530    1.000
    H14      H        0.25000    0.09260    0.11840    1.000
    H15      H        0.25000    0.25210    0.11690    1.000
    H16      H        0.25000    0.23080    0.46460    1.000
    H17      H        0.25000    0.26120    0.56260    1.000
    H18      H        0.25000    0.13780    0.62880    1.000
    H19      H        0.75000    0.48730    0.70530    1.000
    H20      H        0.75000    0.40740    0.61840    1.000
    H21      H        0.75000    0.24790    0.61690    1.000
    H22      H        0.75000    0.26920    0.96460    1.000
    H23      H        0.75000    0.23880    0.06260    1.000
    H24      H        0.75000    0.36220    0.12880    1.000
    C1       C        0.75000    0.92200    0.79430    1.000
    C2       C        0.75000    0.87410    0.84670    1.000
    C3       C        0.75000    0.78000    0.84770    1.000
    C4       C        0.75000    0.73020    0.79470    1.000
    C5       C        0.75000    0.62320    0.79720    1.000
    C6       C        0.75000    0.78080    0.74260    1.000
    C7       C        0.75000    0.73470    0.68370    1.000
    C8       C        0.75000    0.81950    0.50950    1.000
    C9       C        0.75000    0.80060    0.45060    1.000
    C10      C        0.75000    0.87390    0.41120    1.000
    C11      C        0.75000    0.96650    0.43250    1.000
    C12      C        0.75000    0.04550    0.38880    1.000
    C13      C        0.75000    0.97960    0.49340    1.000
    C14      C        0.75000    0.07650    0.52060    1.000
    C15      C        0.25000    0.57800    0.29430    1.000
    C16      C        0.25000    0.62590    0.34670    1.000
    C17      C        0.25000    0.72000    0.34770    1.000
    C18      C        0.25000    0.76980    0.29470    1.000
    C19      C        0.25000    0.87680    0.29720    1.000
    C20      C        0.25000    0.71920    0.24260    1.000
    C21      C        0.25000    0.76530    0.18370    1.000
    C22      C        0.25000    0.68050    0.00950    1.000
    C23      C        0.25000    0.69940    0.95060    1.000
    C24      C        0.25000    0.62610    0.91120    1.000
    C25      C        0.25000    0.53350    0.93250    1.000
    C26      C        0.25000    0.45450    0.88880    1.000
    C27      C        0.25000    0.52040    0.99340    1.000
    C28      C        0.25000    0.42350    0.02060    1.000
    C29      C        0.25000    0.07800    0.20570    1.000
    C30      C        0.25000    0.12590    0.15330    1.000
    C31      C        0.25000    0.22000    0.15230    1.000
    C32      C        0.25000    0.26980    0.20530    1.000
    C33      C        0.25000    0.37680    0.20280    1.000
    C34      C        0.25000    0.21920    0.25740    1.000
    C35      C        0.25000    0.26530    0.31630    1.000
    C36      C        0.25000    0.18050    0.49050    1.000
    C37      C        0.25000    0.19940    0.54940    1.000
    C38      C        0.25000    0.12610    0.58880    1.000
    C39      C        0.25000    0.03350    0.56750    1.000
    C40      C        0.25000    0.95450    0.61120    1.000
    C41      C        0.25000    0.02040    0.50660    1.000
    C42      C        0.25000    0.92350    0.47940    1.000
    C43      C        0.75000    0.42200    0.70570    1.000
    C44      C        0.75000    0.37410    0.65330    1.000
    C45      C        0.75000    0.28000    0.65230    1.000
    C46      C        0.75000    0.23020    0.70530    1.000
    C47      C        0.75000    0.12320    0.70280    1.000
    C48      C        0.75000    0.28080    0.75740    1.000
    C49      C        0.75000    0.23470    0.81630    1.000
    C50      C        0.75000    0.31950    0.99050    1.000
    C51      C        0.75000    0.30060    0.04940    1.000
    C52      C        0.75000    0.37390    0.08880    1.000
    C53      C        0.75000    0.46650    0.06750    1.000
    C54      C        0.75000    0.54550    0.11120    1.000
    C55      C        0.75000    0.47960    0.00660    1.000
    C56      C        0.75000    0.57650    0.97940    1.000
    N1       N        0.75000    0.87570    0.74130    1.000
    N2       N        0.75000    0.90660    0.53130    1.000
    N3       N        0.25000    0.62430    0.24130    1.000
    N4       N        0.25000    0.59340    0.03130    1.000
    N5       N        0.25000    0.12430    0.25870    1.000
    N6       N        0.25000    0.09340    0.46870    1.000
    N7       N        0.75000    0.37570    0.75870    1.000
    N8       N        0.75000    0.40660    0.96870    1.000
    O1       O        0.91300    0.58020    0.80339    1.000
    O2       O        0.91550    0.07550    0.37073    1.000
    O3       O        0.08700    0.91980    0.30339    1.000
    O4       O        0.08450    0.42450    0.87073    1.000
    O5       O        0.41300    0.41980    0.19661    1.000
    O6       O        0.41550    0.92450    0.62927    1.000
    O7       O        0.58700    0.08020    0.69661    1.000
    O8       O        0.58450    0.57550    0.12927    1.000
    O9       O        0.08700    0.41980    0.19661    1.000
    O10      O        0.08450    0.92450    0.62927    1.000
    O11      O        0.91300    0.08020    0.69661    1.000
    O12      O        0.91550    0.57550    0.12927    1.000
    O13      O        0.58700    0.58020    0.80339    1.000
    O14      O        0.58450    0.07550    0.37073    1.000
    O15      O        0.41300    0.91980    0.30339    1.000
    O16      O        0.41550    0.42450    0.87073    1.000
    O17      O        0.75000    0.78880    0.64020    1.000
    O18      O        0.75000    0.64710    0.68100    1.000
    O19      O        0.75000    0.07790    0.57670    1.000
    O20      O        0.75000    0.14520    0.48700    1.000
    O21      O        0.25000    0.71120    0.14020    1.000
    O22      O        0.25000    0.85290    0.18100    1.000
    O23      O        0.25000    0.42210    0.07670    1.000
    O24      O        0.25000    0.35480    0.98700    1.000
    O25      O        0.25000    0.21120    0.35980    1.000
    O26      O        0.25000    0.35290    0.31900    1.000
    O27      O        0.25000    0.92210    0.42330    1.000
    O28      O        0.25000    0.85480    0.51300    1.000
    O29      O        0.75000    0.28880    0.85980    1.000
    O30      O        0.75000    0.14710    0.81900    1.000
    O31      O        0.75000    0.57790    0.92330    1.000
    O32      O        0.75000    0.64520    0.01300    1.000
