# CIF file generated by openbabel 3.1.0, see https://openbabel.org
data_I
_chemical_name_common 'image0'
_cell_length_a 8.3493
_cell_length_b 11.7276
_cell_length_c 8.9089
_cell_angle_alpha 90
_cell_angle_beta 90
_cell_angle_gamma 90
_space_group_name_H-M_alt 'P 1'
_space_group_name_Hall 'P 1'
loop_
    _symmetry_equiv_pos_as_xyz
    x,y,z
loop_
    _atom_site_label
    _atom_site_type_symbol
    _atom_site_fract_x
    _atom_site_fract_y
    _atom_site_fract_z
    _atom_site_occupancy
    O1       O        0.25761    0.40584    0.36451    1.000
    O2       O        0.40672    0.18209    0.41359    1.000
    O3       O        0.56379    0.19234    0.61254    1.000
    C1       C        0.52260    0.22178    0.48390    1.000
    H1       H        0.58330    0.27780    0.43670    1.000
    O4       O        0.24239    0.59416    0.36451    1.000
    O5       O        0.09328    0.81791    0.41359    1.000
    O6       O        0.93621    0.80766    0.61254    1.000
    C2       C        0.97740    0.77822    0.48390    1.000
    H2       H        0.91670    0.72220    0.43670    1.000
    O7       O        0.24239    0.90584    0.13549    1.000
    O8       O        0.09328    0.68209    0.08641    1.000
    O9       O        0.93621    0.69234    0.88746    1.000
    C3       C        0.97740    0.72178    0.01610    1.000
    H3       H        0.91670    0.77780    0.06330    1.000
    O10      O        0.25761    0.09416    0.13549    1.000
    O11      O        0.40672    0.31791    0.08641    1.000
    O12      O        0.56379    0.30766    0.88746    1.000
    C4       C        0.52260    0.27822    0.01610    1.000
    H4       H        0.58330    0.22220    0.06330    1.000
    O13      O        0.74239    0.59416    0.63549    1.000
    O14      O        0.59328    0.81791    0.58641    1.000
    O15      O        0.43621    0.80766    0.38746    1.000
    C5       C        0.47740    0.77822    0.51610    1.000
    H5       H        0.41670    0.72220    0.56330    1.000
    O16      O        0.75761    0.40584    0.63549    1.000
    O17      O        0.90672    0.18209    0.58641    1.000
    O18      O        0.06379    0.19234    0.38746    1.000
    C6       C        0.02260    0.22178    0.51610    1.000
    H6       H        0.08330    0.27780    0.56330    1.000
    O19      O        0.75761    0.09416    0.86451    1.000
    O20      O        0.90672    0.31791    0.91359    1.000
    O21      O        0.06379    0.30766    0.11254    1.000
    C7       C        0.02260    0.27822    0.98390    1.000
    H7       H        0.08330    0.22220    0.93670    1.000
    O22      O        0.74239    0.90584    0.86451    1.000
    O23      O        0.59328    0.68209    0.91359    1.000
    O24      O        0.43621    0.69234    0.11254    1.000
    C8       C        0.47740    0.72178    0.98390    1.000
    H8       H        0.41670    0.77780    0.93670    1.000
    Zn1      Zn       0.25565    0.25000    0.25000    1.000
    Zn2      Zn       0.24435    0.75000    0.25000    1.000
    Zn3      Zn       0.74435    0.75000    0.75000    1.000
    Zn4      Zn       0.75565    0.25000    0.75000    1.000
    C9       C        0.25000    0.50000    0.30190    1.000
    H9       H        0.25000    0.50000    0.19750    1.000
    C10      C        0.25000    0.00000    0.19810    1.000
    H10      H        0.25000    0.00000    0.30250    1.000
    C11      C        0.75000    0.50000    0.69810    1.000
    H11      H        0.75000    0.50000    0.80250    1.000
    C12      C        0.75000    0.00000    0.80190    1.000
    H12      H        0.75000    0.00000    0.69750    1.000
