# CIF file generated by openbabel 3.1.0, see https://openbabel.org
data_I
_chemical_name_common 'LIRVAK_charged'
_cell_length_a 11.5557
_cell_length_b 14.0999
_cell_length_c 25.6278
_cell_angle_alpha 90
_cell_angle_beta 90
_cell_angle_gamma 94.144
_space_group_name_H-M_alt 'P 1'
_space_group_name_Hall 'P 1'
loop_
    _symmetry_equiv_pos_as_xyz
    x,y,z
loop_
    _atom_site_label
    _atom_site_type_symbol
    _atom_site_fract_x
    _atom_site_fract_y
    _atom_site_fract_z
    _atom_site_occupancy
    Cu1      Cu       0.02666    0.01257    0.64530    1.000
    Cu2      Cu       0.48184    0.48229    0.87786    1.000
    Cu3      Cu       0.97334    0.98743    0.14530    1.000
    Cu4      Cu       0.51816    0.51771    0.37786    1.000
    H1       H        0.25200    0.49840    0.82270    1.000
    H2       H        0.52870    0.66440    0.82660    1.000
    H3       H        0.97880    0.85200    0.71610    1.000
    H4       H        0.37140    0.85270    0.71480    1.000
    H5       H        0.27940    0.96850    0.67090    1.000
    H6       H        0.89440    0.16580    0.80380    1.000
    H7       H        0.49220    0.39840    0.77280    1.000
    H8       H        0.56810    0.35640    0.44780    1.000
    H9       H        0.60050    0.30460    0.72030    1.000
    H10      H        0.98590    0.06310    0.75830    1.000
    H11      H        0.06680    0.84700    0.57650    1.000
    H12      H        0.06460    0.74020    0.76260    1.000
    H13      H        0.44270    0.78410    0.78680    1.000
    H14      H        0.23060    0.01140    0.57480    1.000
    H15      H        0.04750    0.21740    0.62030    1.000
    H16      H        0.53380    0.72050    0.41550    1.000
    H17      H        0.47670    0.25010    0.50570    1.000
    H18      H        0.73880    0.51730    0.43990    1.000
    H19      H        0.97430    0.74570    0.51900    1.000
    H20      H        0.77800    0.95470    0.61420    1.000
    H21      H        0.14700    0.32320    0.56150    1.000
    H22      H        0.63480    0.81680    0.46740    1.000
    H23      H        0.27540    0.45590    0.41150    1.000
    H24      H        0.34900    0.11220    0.52320    1.000
    H25      H        0.17500    0.35610    0.46780    1.000
    H26      H        0.69220    0.37050    0.89190    1.000
    H27      H        0.83750    0.61030    0.50120    1.000
    H28      H        0.82370    0.12900    0.63210    1.000
    H29      H        0.67730    0.85530    0.55680    1.000
    H30      H        0.80440    0.27120    0.84690    1.000
    H31      H        0.71360    0.22640    0.67670    1.000
    H32      H        0.15930    0.60240    0.77210    1.000
    H33      H        0.74800    0.50160    0.32270    1.000
    H34      H        0.47130    0.33560    0.32660    1.000
    H35      H        0.02120    0.14800    0.21610    1.000
    H36      H        0.62860    0.14730    0.21480    1.000
    H37      H        0.72060    0.03150    0.17090    1.000
    H38      H        0.10560    0.83420    0.30380    1.000
    H39      H        0.50780    0.60160    0.27280    1.000
    H40      H        0.43190    0.64360    0.94780    1.000
    H41      H        0.39950    0.69540    0.22030    1.000
    H42      H        0.01410    0.93690    0.25830    1.000
    H43      H        0.93320    0.15300    0.07650    1.000
    H44      H        0.93540    0.25980    0.26260    1.000
    H45      H        0.55730    0.21590    0.28680    1.000
    H46      H        0.76940    0.98860    0.07480    1.000
    H47      H        0.95250    0.78260    0.12030    1.000
    H48      H        0.46620    0.27950    0.91550    1.000
    H49      H        0.52330    0.74990    0.00570    1.000
    H50      H        0.26120    0.48270    0.93990    1.000
    H51      H        0.02570    0.25430    0.01900    1.000
    H52      H        0.22200    0.04530    0.11420    1.000
    H53      H        0.85300    0.67680    0.06150    1.000
    H54      H        0.36520    0.18320    0.96740    1.000
    H55      H        0.72460    0.54410    0.91150    1.000
    H56      H        0.65100    0.88780    0.02320    1.000
    H57      H        0.82500    0.64390    0.96780    1.000
    H58      H        0.30780    0.62950    0.39190    1.000
    H59      H        0.16250    0.38970    0.00120    1.000
    H60      H        0.17630    0.87100    0.13210    1.000
    H61      H        0.32270    0.14470    0.05680    1.000
    H62      H        0.19560    0.72880    0.34690    1.000
    H63      H        0.28640    0.77360    0.17670    1.000
    H64      H        0.84070    0.39760    0.27210    1.000
    C1       C        0.29130    0.55600    0.81380    1.000
    C2       C        0.45100    0.65430    0.81730    1.000
    C3       C        0.05940    0.85460    0.71660    1.000
    C4       C        0.29100    0.85280    0.71610    1.000
    C5       C        0.23490    0.92270    0.68960    1.000
    C6       C        0.87600    0.15770    0.76870    1.000
    C7       C        0.55850    0.37500    0.78700    1.000
    C8       C        0.48820    0.35660    0.45230    1.000
    C9       C        0.62150    0.31570    0.75490    1.000
    C10      C        0.93450    0.10000    0.74100    1.000
    C11      C        0.98700    0.84920    0.57260    1.000
    C12      C        0.22620    0.78280    0.74450    1.000
    C13      C        0.11050    0.78550    0.74410    1.000
    C14      C        0.40160    0.72570    0.79200    1.000
    C15      C        0.28650    0.70940    0.77390    1.000
    C16      C        0.21570    0.07530    0.57290    1.000
    C17      C        0.10510    0.19570    0.59900    1.000
    C18      C        0.78210    0.21040    0.74660    1.000
    C19      C        0.59760    0.69720    0.43200    1.000
    C20      C        0.43320    0.29230    0.48760    1.000
    C21      C        0.71480    0.57760    0.44670    1.000
    C22      C        0.93250    0.78790    0.53790    1.000
    C23      C        0.81840    0.91240    0.59470    1.000
    C24      C        0.16630    0.26050    0.56420    1.000
    C25      C        0.65590    0.75470    0.46400    1.000
    C26      C        0.31680    0.41470    0.43130    1.000
    C27      C        0.28530    0.13420    0.54040    1.000
    C28      C        0.25520    0.35490    0.46500    1.000
    C29      C        0.67490    0.35790    0.85710    1.000
    C30      C        0.77640    0.63470    0.48320    1.000
    C31      C        0.83850    0.13700    0.66760    1.000
    C32      C        0.25540    0.22730    0.53480    1.000
    C33      C        0.75710    0.85240    0.56020    1.000
    C34      C        0.31670    0.29080    0.49580    1.000
    C35      C        0.74870    0.72590    0.49320    1.000
    C36      C        0.81280    0.78950    0.53140    1.000
    C37      C        0.74220    0.29760    0.83070    1.000
    C38      C        0.77000    0.19580    0.69460    1.000
    C39      C        0.23350    0.61940    0.78470    1.000
    C40      C        0.71270    0.27600    0.77590    1.000
    C41      C        0.70870    0.44400    0.31380    1.000
    C42      C        0.54900    0.34570    0.31730    1.000
    C43      C        0.94060    0.14540    0.21660    1.000
    C44      C        0.70900    0.14720    0.21610    1.000
    C45      C        0.76510    0.07730    0.18960    1.000
    C46      C        0.12400    0.84230    0.26870    1.000
    C47      C        0.44150    0.62500    0.28700    1.000
    C48      C        0.51180    0.64340    0.95230    1.000
    C49      C        0.37850    0.68430    0.25490    1.000
    C50      C        0.06550    0.90000    0.24100    1.000
    C51      C        0.01300    0.15080    0.07260    1.000
    C52      C        0.77380    0.21720    0.24450    1.000
    C53      C        0.88950    0.21450    0.24410    1.000
    C54      C        0.59840    0.27430    0.29200    1.000
    C55      C        0.71350    0.29060    0.27390    1.000
    C56      C        0.78430    0.92470    0.07290    1.000
    C57      C        0.89490    0.80430    0.09900    1.000
    C58      C        0.21790    0.78960    0.24660    1.000
    C59      C        0.40240    0.30280    0.93200    1.000
    C60      C        0.56680    0.70770    0.98760    1.000
    C61      C        0.28520    0.42240    0.94670    1.000
    C62      C        0.06750    0.21210    0.03790    1.000
    C63      C        0.18160    0.08760    0.09470    1.000
    C64      C        0.83370    0.73950    0.06420    1.000
    C65      C        0.34410    0.24530    0.96400    1.000
    C66      C        0.68320    0.58530    0.93130    1.000
    C67      C        0.71470    0.86580    0.04040    1.000
    C68      C        0.74480    0.64510    0.96500    1.000
    C69      C        0.32510    0.64210    0.35710    1.000
    C70      C        0.22360    0.36530    0.98320    1.000
    C71      C        0.16150    0.86300    0.16760    1.000
    C72      C        0.74460    0.77270    0.03480    1.000
    C73      C        0.24290    0.14760    0.06020    1.000
    C74      C        0.68330    0.70920    0.99580    1.000
    C75      C        0.25130    0.27410    0.99320    1.000
    C76      C        0.18720    0.21050    0.03140    1.000
    C77      C        0.25780    0.70240    0.33070    1.000
    C78      C        0.23000    0.80420    0.19460    1.000
    C79      C        0.76650    0.38060    0.28470    1.000
    C80      C        0.28730    0.72400    0.27590    1.000
    N1       N        0.58510    0.40020    0.83570    1.000
    N2       N        0.39750    0.57190    0.82970    1.000
    N3       N        0.62150    0.60630    0.42050    1.000
    N4       N        0.11740    0.92640    0.69000    1.000
    N5       N        0.12880    0.10500    0.60160    1.000
    N6       N        0.92480    0.09040    0.68800    1.000
    N7       N        0.93440    0.91210    0.60120    1.000
    N8       N        0.43010    0.41840    0.42470    1.000
    N9       N        0.41490    0.59980    0.33570    1.000
    N10      N        0.60250    0.42810    0.32970    1.000
    N11      N        0.37850    0.39370    0.92050    1.000
    N12      N        0.88260    0.07360    0.19000    1.000
    N13      N        0.87120    0.89500    0.10160    1.000
    N14      N        0.07520    0.90960    0.18800    1.000
    N15      N        0.06560    0.08790    0.10120    1.000
    N16      N        0.56990    0.58160    0.92470    1.000
    H65      H        0.66860    0.29680    0.13280    1.000
    H66      H        0.70600    0.55600    0.13210    1.000
    H67      H        0.68120    0.51440    0.18820    1.000
    H68      H        0.82820    0.44850    0.12220    1.000
    H69      H        0.78530    0.39590    0.17360    1.000
    H70      H        0.54190    0.48240    0.03130    1.000
    H71      H        0.63510    0.41300    0.01440    1.000
    H72      H        0.67170    0.50290    0.04820    1.000
    H73      H        0.42940    0.35620    0.07720    1.000
    H74      H        0.48780    0.30320    0.12290    1.000
    H75      H        0.51720    0.27950    0.06490    1.000
    H76      H        0.48630    0.45420    0.20540    1.000
    H77      H        0.55300    0.36550    0.18970    1.000
    H78      H        0.43130    0.38030    0.16510    1.000
    C81      C        0.69640    0.34840    0.10930    1.000
    C82      C        0.58870    0.39830    0.08920    1.000
    C83      C        0.55880    0.46600    0.13480    1.000
    C84      C        0.68020    0.49910    0.15130    1.000
    C85      C        0.76020    0.42270    0.14090    1.000
    C86      C        0.61130    0.45390    0.04170    1.000
    C87      C        0.49910    0.32910    0.08850    1.000
    C88      C        0.48930    0.54500    0.11920    1.000
    C89      C        0.76180    0.30670    0.06680    1.000
    C90      C        0.50260    0.41190    0.17740    1.000
    O1       O        0.84820    0.35430    0.04650    1.000
    O2       O        0.72550    0.22370    0.05180    1.000
    O3       O        0.38990    0.52190    0.09770    1.000
    O4       O        0.51880    0.63110    0.13090    1.000
    H79      H        0.18900    0.05070    0.86010    1.000
    H80      H        0.13420    0.96910    0.82370    1.000
    H81      H        0.28950    0.88800    0.84730    1.000
    H82      H        0.31550    0.95310    0.89670    1.000
    H83      H        0.09760    0.79040    0.85080    1.000
    H84      H        0.09130    0.72280    0.89950    1.000
    H85      H        0.20390    0.73250    0.86520    1.000
    H86      H        0.95650    0.78220    0.93600    1.000
    H87      H        0.92460    0.87120    0.96830    1.000
    H88      H        0.01610    0.80460    0.99000    1.000
    H89      H        0.18270    0.00490    0.96070    1.000
    H90      H        0.13980    0.93390    0.00490    1.000
    H91      H        0.05450    0.00380    0.98090    1.000
    C91      C        0.18710    0.84360    0.91160    1.000
    C92      C        0.08030    0.89100    0.93230    1.000
    C93      C        0.05980    0.96730    0.89680    1.000
    C94      C        0.15920    0.98460    0.85900    1.000
    C95      C        0.25490    0.91790    0.87700    1.000
    C96      C        0.14110    0.76580    0.87900    1.000
    C97      C        0.98600    0.83200    0.95900    1.000
    C98      C        0.25980    0.80240    0.95830    1.000
    C99      C        0.97140    0.03610    0.89960    1.000
    C100     C        0.11800    0.96500    0.97350    1.000
    O5       O        0.23330    0.71770    0.97370    1.000
    O6       O        0.34240    0.85290    0.97630    1.000
    O7       O        0.89460    0.02810    0.93870    1.000
    O8       O        0.00450    0.11620    0.89520    1.000
    H92      H        0.33140    0.70320    0.63280    1.000
    H93      H        0.29400    0.44400    0.63210    1.000
    H94      H        0.31880    0.48560    0.68820    1.000
    H95      H        0.17180    0.55150    0.62220    1.000
    H96      H        0.21470    0.60410    0.67360    1.000
    H97      H        0.45810    0.51760    0.53130    1.000
    H98      H        0.36490    0.58700    0.51440    1.000
    H99      H        0.32830    0.49710    0.54820    1.000
    H100     H        0.57060    0.64380    0.57720    1.000
    H101     H        0.51220    0.69680    0.62290    1.000
    H102     H        0.48280    0.72050    0.56490    1.000
    H103     H        0.51370    0.54580    0.70540    1.000
    H104     H        0.44700    0.63450    0.68970    1.000
    H105     H        0.56870    0.61970    0.66510    1.000
    C101     C        0.30360    0.65160    0.60930    1.000
    C102     C        0.41130    0.60170    0.58920    1.000
    C103     C        0.44120    0.53400    0.63480    1.000
    C104     C        0.31980    0.50090    0.65130    1.000
    C105     C        0.23980    0.57730    0.64090    1.000
    C106     C        0.38870    0.54610    0.54170    1.000
    C107     C        0.50090    0.67090    0.58850    1.000
    C108     C        0.51070    0.45500    0.61920    1.000
    C109     C        0.23820    0.69330    0.56680    1.000
    C110     C        0.49740    0.58810    0.67740    1.000
    O9       O        0.15180    0.64570    0.54650    1.000
    O10      O        0.27450    0.77630    0.55180    1.000
    O11      O        0.61010    0.47810    0.59770    1.000
    O12      O        0.48120    0.36890    0.63090    1.000
    H106     H        0.81100    0.94930    0.36010    1.000
    H107     H        0.86580    0.03090    0.32370    1.000
    H108     H        0.71050    0.11200    0.34730    1.000
    H109     H        0.68450    0.04690    0.39670    1.000
    H110     H        0.90240    0.20960    0.35080    1.000
    H111     H        0.90870    0.27720    0.39950    1.000
    H112     H        0.79610    0.26750    0.36520    1.000
    H113     H        0.04350    0.21780    0.43600    1.000
    H114     H        0.07540    0.12880    0.46830    1.000
    H115     H        0.98390    0.19540    0.49000    1.000
    H116     H        0.81730    0.99510    0.46070    1.000
    H117     H        0.86020    0.06610    0.50490    1.000
    H118     H        0.94550    0.99620    0.48090    1.000
    C111     C        0.81290    0.15640    0.41160    1.000
    C112     C        0.91970    0.10900    0.43230    1.000
    C113     C        0.94020    0.03270    0.39680    1.000
    C114     C        0.84080    0.01540    0.35900    1.000
    C115     C        0.74510    0.08210    0.37700    1.000
    C116     C        0.85890    0.23420    0.37900    1.000
    C117     C        0.01400    0.16800    0.45900    1.000
    C118     C        0.74020    0.19760    0.45830    1.000
    C119     C        0.02860    0.96390    0.39960    1.000
    C120     C        0.88200    0.03500    0.47350    1.000
    O13      O        0.76670    0.28230    0.47370    1.000
    O14      O        0.65760    0.14710    0.47630    1.000
    O15      O        0.10540    0.97190    0.43870    1.000
    O16      O        0.99550    0.88380    0.39520    1.000
