# CIF file generated by openbabel 3.1.0, see https://openbabel.org
data_I
_chemical_name_common 'image0'
_cell_length_a 26.5634
_cell_length_b 26.5634
_cell_length_c 5.1954
_cell_angle_alpha 90
_cell_angle_beta 90
_cell_angle_gamma 90
_space_group_name_H-M_alt 'P 1'
_space_group_name_Hall 'P 1'
loop_
    _symmetry_equiv_pos_as_xyz
    x,y,z
loop_
    _atom_site_label
    _atom_site_type_symbol
    _atom_site_fract_x
    _atom_site_fract_y
    _atom_site_fract_z
    _atom_site_occupancy
    Zn1      Zn       0.27245    0.21432    0.92230    1.000
    O1       O        0.22280    0.25380    0.09450    1.000
    H1       H        0.20200    0.26480    0.98230    1.000
    N1       N        0.25420    0.14310    0.90700    1.000
    C1       C        0.26810    0.10420    0.04260    1.000
    H2       H        0.29340    0.10650    0.16570    1.000
    N2       N        0.24370    0.06020    0.99560    1.000
    C2       C        0.21390    0.12050    0.74570    1.000
    O2       O        0.27850    0.83260    0.36500    1.000
    C3       C        0.18450    0.14370    0.56110    1.000
    H3       H        0.18860    0.17770    0.52390    1.000
    O3       O        0.32030    0.87370    0.66500    1.000
    C4       C        0.14870    0.11510    0.43240    1.000
    C5       C        0.11850    0.13610    0.24450    1.000
    H4       H        0.12240    0.17000    0.20420    1.000
    C6       C        0.08230    0.10810    0.11380    1.000
    H5       H        0.06230    0.12290    0.98830    1.000
    C7       C        0.07690    0.05740    0.17460    1.000
    H6       H        0.05300    0.03790    0.08990    1.000
    C8       C        0.10730    0.03610    0.36220    1.000
    H7       H        0.10350    0.00220    0.40160    1.000
    C9       C        0.14330    0.06420    0.49320    1.000
    C10      C        0.17240    0.04040    0.68040    1.000
    H8       H        0.16820    0.00650    0.71900    1.000
    C11      C        0.20790    0.06980    0.80700    1.000
    C12      C        0.25800    0.01230    0.10300    1.000
    C13      C        0.28570    0.92230    0.31700    1.000
    C14      C        0.30760    0.00430    0.16400    1.000
    H9       H        0.33120    0.02940    0.13220    1.000
    C15      C        0.32300    0.95860    0.27300    1.000
    H10      H        0.35660    0.95270    0.31470    1.000
    C16      C        0.23430    0.92760    0.25800    1.000
    H11      H        0.21050    0.90260    0.28720    1.000
    C17      C        0.22310    0.97460    0.15100    1.000
    H12      H        0.18970    0.98100    0.10890    1.000
    C18      C        0.29870    0.87270    0.44300    1.000
    O4       O        0.34800    0.86800    0.50200    1.000
    C19      C        0.27690    0.01040    0.35000    1.000
    H13      H        0.28020    0.04010    0.44350    1.000
    C20      C        0.29110    0.96560    0.46200    1.000
    H14      H        0.30380    0.96450    0.62880    1.000
    C21      C        0.26690    0.92230    0.07000    1.000
    H15      H        0.26350    0.89260    0.97730    1.000
    C22      C        0.25340    0.96790    0.96500    1.000
    H16      H        0.24090    0.96890    0.79830    1.000
    Zn2      Zn       0.77245    0.71432    0.42230    1.000
    O5       O        0.72280    0.75380    0.59450    1.000
    H17      H        0.70200    0.76480    0.48230    1.000
    N3       N        0.75420    0.64310    0.40700    1.000
    C23      C        0.76810    0.60420    0.54260    1.000
    H18      H        0.79340    0.60650    0.66570    1.000
    N4       N        0.74370    0.56020    0.49560    1.000
    C24      C        0.71390    0.62050    0.24570    1.000
    O6       O        0.77850    0.33260    0.86500    1.000
    C25      C        0.68450    0.64370    0.06110    1.000
    H19      H        0.68860    0.67770    0.02390    1.000
    O7       O        0.82030    0.37370    0.16500    1.000
    C26      C        0.64870    0.61510    0.93240    1.000
    C27      C        0.61850    0.63610    0.74450    1.000
    H20      H        0.62240    0.67000    0.70420    1.000
    C28      C        0.58230    0.60810    0.61380    1.000
    H21      H        0.56230    0.62290    0.48830    1.000
    C29      C        0.57690    0.55740    0.67460    1.000
    H22      H        0.55300    0.53790    0.58990    1.000
    C30      C        0.60730    0.53610    0.86220    1.000
    H23      H        0.60350    0.50220    0.90160    1.000
    C31      C        0.64330    0.56420    0.99320    1.000
    C32      C        0.67240    0.54040    0.18040    1.000
    H24      H        0.66820    0.50650    0.21900    1.000
    C33      C        0.70790    0.56980    0.30700    1.000
    C34      C        0.75800    0.51230    0.60300    1.000
    C35      C        0.78570    0.42230    0.81700    1.000
    C36      C        0.80760    0.50430    0.66400    1.000
    H25      H        0.83120    0.52940    0.63220    1.000
    C37      C        0.82300    0.45860    0.77300    1.000
    H26      H        0.85660    0.45270    0.81470    1.000
    C38      C        0.73430    0.42760    0.75800    1.000
    H27      H        0.71050    0.40260    0.78720    1.000
    C39      C        0.72310    0.47460    0.65100    1.000
    H28      H        0.68970    0.48100    0.60890    1.000
    C40      C        0.79870    0.37270    0.94300    1.000
    O8       O        0.84800    0.36800    0.00200    1.000
    C41      C        0.77690    0.51040    0.85000    1.000
    H29      H        0.78020    0.54010    0.94350    1.000
    C42      C        0.79110    0.46560    0.96200    1.000
    H30      H        0.80380    0.46450    0.12880    1.000
    C43      C        0.76690    0.42230    0.57000    1.000
    H31      H        0.76350    0.39260    0.47730    1.000
    C44      C        0.75340    0.46790    0.46500    1.000
    H32      H        0.74090    0.46890    0.29830    1.000
    Zn3      Zn       0.72755    0.78568    0.92230    1.000
    O9       O        0.77720    0.74620    0.09450    1.000
    H33      H        0.79800    0.73520    0.98230    1.000
    N5       N        0.74580    0.85690    0.90700    1.000
    C45      C        0.73190    0.89580    0.04260    1.000
    H34      H        0.70660    0.89350    0.16570    1.000
    N6       N        0.75630    0.93980    0.99560    1.000
    C46      C        0.78610    0.87950    0.74570    1.000
    O10      O        0.72150    0.16740    0.36500    1.000
    C47      C        0.81550    0.85630    0.56110    1.000
    H35      H        0.81140    0.82230    0.52390    1.000
    O11      O        0.67970    0.12630    0.66500    1.000
    C48      C        0.85130    0.88490    0.43240    1.000
    C49      C        0.88150    0.86390    0.24450    1.000
    H36      H        0.87760    0.83000    0.20420    1.000
    C50      C        0.91770    0.89190    0.11380    1.000
    H37      H        0.93770    0.87710    0.98830    1.000
    C51      C        0.92310    0.94260    0.17460    1.000
    H38      H        0.94700    0.96210    0.08990    1.000
    C52      C        0.89270    0.96390    0.36220    1.000
    H39      H        0.89650    0.99780    0.40160    1.000
    C53      C        0.85670    0.93580    0.49320    1.000
    C54      C        0.82760    0.95960    0.68040    1.000
    H40      H        0.83180    0.99350    0.71900    1.000
    C55      C        0.79210    0.93020    0.80700    1.000
    C56      C        0.74200    0.98770    0.10300    1.000
    C57      C        0.71430    0.07770    0.31700    1.000
    C58      C        0.69240    0.99570    0.16400    1.000
    H41      H        0.66880    0.97060    0.13220    1.000
    C59      C        0.67700    0.04140    0.27300    1.000
    H42      H        0.64340    0.04730    0.31470    1.000
    C60      C        0.76570    0.07240    0.25800    1.000
    H43      H        0.78950    0.09740    0.28720    1.000
    C61      C        0.77690    0.02540    0.15100    1.000
    H44      H        0.81030    0.01900    0.10890    1.000
    C62      C        0.70130    0.12730    0.44300    1.000
    O12      O        0.65200    0.13200    0.50200    1.000
    C63      C        0.72310    0.98960    0.35000    1.000
    H45      H        0.71980    0.95990    0.44350    1.000
    C64      C        0.70890    0.03440    0.46200    1.000
    H46      H        0.69620    0.03550    0.62880    1.000
    C65      C        0.73310    0.07770    0.07000    1.000
    H47      H        0.73650    0.10740    0.97730    1.000
    C66      C        0.74660    0.03210    0.96500    1.000
    H48      H        0.75910    0.03110    0.79830    1.000
    Zn4      Zn       0.22755    0.28568    0.42230    1.000
    O13      O        0.27720    0.24620    0.59450    1.000
    H49      H        0.29800    0.23520    0.48230    1.000
    N7       N        0.24580    0.35690    0.40700    1.000
    C67      C        0.23190    0.39580    0.54260    1.000
    H50      H        0.20660    0.39350    0.66570    1.000
    N8       N        0.25630    0.43980    0.49560    1.000
    C68      C        0.28610    0.37950    0.24570    1.000
    O14      O        0.22150    0.66740    0.86500    1.000
    C69      C        0.31550    0.35630    0.06110    1.000
    H51      H        0.31140    0.32230    0.02390    1.000
    O15      O        0.17970    0.62630    0.16500    1.000
    C70      C        0.35130    0.38490    0.93240    1.000
    C71      C        0.38150    0.36390    0.74450    1.000
    H52      H        0.37760    0.33000    0.70420    1.000
    C72      C        0.41770    0.39190    0.61380    1.000
    H53      H        0.43770    0.37710    0.48830    1.000
    C73      C        0.42310    0.44260    0.67460    1.000
    H54      H        0.44700    0.46210    0.58990    1.000
    C74      C        0.39270    0.46390    0.86220    1.000
    H55      H        0.39650    0.49780    0.90160    1.000
    C75      C        0.35670    0.43580    0.99320    1.000
    C76      C        0.32760    0.45960    0.18040    1.000
    H56      H        0.33180    0.49350    0.21900    1.000
    C77      C        0.29210    0.43020    0.30700    1.000
    C78      C        0.24200    0.48770    0.60300    1.000
    C79      C        0.21430    0.57770    0.81700    1.000
    C80      C        0.19240    0.49570    0.66400    1.000
    H57      H        0.16880    0.47060    0.63220    1.000
    C81      C        0.17700    0.54140    0.77300    1.000
    H58      H        0.14340    0.54730    0.81470    1.000
    C82      C        0.26570    0.57240    0.75800    1.000
    H59      H        0.28950    0.59740    0.78720    1.000
    C83      C        0.27690    0.52540    0.65100    1.000
    H60      H        0.31030    0.51900    0.60890    1.000
    C84      C        0.20130    0.62730    0.94300    1.000
    O16      O        0.15200    0.63200    0.00200    1.000
    C85      C        0.22310    0.48960    0.85000    1.000
    H61      H        0.21980    0.45990    0.94350    1.000
    C86      C        0.20890    0.53440    0.96200    1.000
    H62      H        0.19620    0.53550    0.12880    1.000
    C87      C        0.23310    0.57770    0.57000    1.000
    H63      H        0.23650    0.60740    0.47730    1.000
    C88      C        0.24660    0.53210    0.46500    1.000
    H64      H        0.25910    0.53110    0.29830    1.000
    Zn5      Zn       0.21432    0.72755    0.07770    1.000
    O17      O        0.25380    0.77720    0.90550    1.000
    H65      H        0.26480    0.79800    0.01770    1.000
    N9       N        0.14310    0.74580    0.09300    1.000
    C89      C        0.10420    0.73190    0.95740    1.000
    H66      H        0.10650    0.70660    0.83430    1.000
    N10      N        0.06020    0.75630    0.00440    1.000
    C90      C        0.12050    0.78610    0.25430    1.000
    O18      O        0.83260    0.72150    0.63500    1.000
    C91      C        0.14370    0.81550    0.43890    1.000
    H67      H        0.17770    0.81140    0.47610    1.000
    O19      O        0.87370    0.67970    0.33500    1.000
    C92      C        0.11510    0.85130    0.56760    1.000
    C93      C        0.13610    0.88150    0.75550    1.000
    H68      H        0.17000    0.87760    0.79580    1.000
    C94      C        0.10810    0.91770    0.88620    1.000
    H69      H        0.12290    0.93770    0.01170    1.000
    C95      C        0.05740    0.92310    0.82540    1.000
    H70      H        0.03790    0.94700    0.91010    1.000
    C96      C        0.03610    0.89270    0.63780    1.000
    H71      H        0.00220    0.89650    0.59840    1.000
    C97      C        0.06420    0.85670    0.50680    1.000
    C98      C        0.04040    0.82760    0.31960    1.000
    H72      H        0.00650    0.83180    0.28100    1.000
    C99      C        0.06980    0.79210    0.19300    1.000
    C100     C        0.01230    0.74200    0.89700    1.000
    C101     C        0.92230    0.71430    0.68300    1.000
    C102     C        0.00430    0.69240    0.83600    1.000
    H73      H        0.02940    0.66880    0.86780    1.000
    C103     C        0.95860    0.67700    0.72700    1.000
    H74      H        0.95270    0.64340    0.68530    1.000
    C104     C        0.92760    0.76570    0.74200    1.000
    H75      H        0.90260    0.78950    0.71280    1.000
    C105     C        0.97460    0.77690    0.84900    1.000
    H76      H        0.98100    0.81030    0.89110    1.000
    C106     C        0.87270    0.70130    0.55700    1.000
    O20      O        0.86800    0.65200    0.49800    1.000
    C107     C        0.01040    0.72310    0.65000    1.000
    H77      H        0.04010    0.71980    0.55650    1.000
    C108     C        0.96560    0.70890    0.53800    1.000
    H78      H        0.96450    0.69620    0.37120    1.000
    C109     C        0.92230    0.73310    0.93000    1.000
    H79      H        0.89260    0.73650    0.02270    1.000
    C110     C        0.96790    0.74660    0.03500    1.000
    H80      H        0.96890    0.75910    0.20170    1.000
    Zn6      Zn       0.71432    0.22755    0.57770    1.000
    O21      O        0.75380    0.27720    0.40550    1.000
    H81      H        0.76480    0.29800    0.51770    1.000
    N11      N        0.64310    0.24580    0.59300    1.000
    C111     C        0.60420    0.23190    0.45740    1.000
    H82      H        0.60650    0.20660    0.33430    1.000
    N12      N        0.56020    0.25630    0.50440    1.000
    C112     C        0.62050    0.28610    0.75430    1.000
    O22      O        0.33260    0.22150    0.13500    1.000
    C113     C        0.64370    0.31550    0.93890    1.000
    H83      H        0.67770    0.31140    0.97610    1.000
    O23      O        0.37370    0.17970    0.83500    1.000
    C114     C        0.61510    0.35130    0.06760    1.000
    C115     C        0.63610    0.38150    0.25550    1.000
    H84      H        0.67000    0.37760    0.29580    1.000
    C116     C        0.60810    0.41770    0.38620    1.000
    H85      H        0.62290    0.43770    0.51170    1.000
    C117     C        0.55740    0.42310    0.32540    1.000
    H86      H        0.53790    0.44700    0.41010    1.000
    C118     C        0.53610    0.39270    0.13780    1.000
    H87      H        0.50220    0.39650    0.09840    1.000
    C119     C        0.56420    0.35670    0.00680    1.000
    C120     C        0.54040    0.32760    0.81960    1.000
    H88      H        0.50650    0.33180    0.78100    1.000
    C121     C        0.56980    0.29210    0.69300    1.000
    C122     C        0.51230    0.24200    0.39700    1.000
    C123     C        0.42230    0.21430    0.18300    1.000
    C124     C        0.50430    0.19240    0.33600    1.000
    H89      H        0.52940    0.16880    0.36780    1.000
    C125     C        0.45860    0.17700    0.22700    1.000
    H90      H        0.45270    0.14340    0.18530    1.000
    C126     C        0.42760    0.26570    0.24200    1.000
    H91      H        0.40260    0.28950    0.21280    1.000
    C127     C        0.47460    0.27690    0.34900    1.000
    H92      H        0.48100    0.31030    0.39110    1.000
    C128     C        0.37270    0.20130    0.05700    1.000
    O24      O        0.36800    0.15200    0.99800    1.000
    C129     C        0.51040    0.22310    0.15000    1.000
    H93      H        0.54010    0.21980    0.05650    1.000
    C130     C        0.46560    0.20890    0.03800    1.000
    H94      H        0.46450    0.19620    0.87120    1.000
    C131     C        0.42230    0.23310    0.43000    1.000
    H95      H        0.39260    0.23650    0.52270    1.000
    C132     C        0.46790    0.24660    0.53500    1.000
    H96      H        0.46890    0.25910    0.70170    1.000
    Zn7      Zn       0.78568    0.27245    0.07770    1.000
    O25      O        0.74620    0.22280    0.90550    1.000
    H97      H        0.73520    0.20200    0.01770    1.000
    N13      N        0.85690    0.25420    0.09300    1.000
    C133     C        0.89580    0.26810    0.95740    1.000
    H98      H        0.89350    0.29340    0.83430    1.000
    N14      N        0.93980    0.24370    0.00440    1.000
    C134     C        0.87950    0.21390    0.25430    1.000
    O26      O        0.16740    0.27850    0.63500    1.000
    C135     C        0.85630    0.18450    0.43890    1.000
    H99      H        0.82230    0.18860    0.47610    1.000
    O27      O        0.12630    0.32030    0.33500    1.000
    C136     C        0.88490    0.14870    0.56760    1.000
    C137     C        0.86390    0.11850    0.75550    1.000
    H100     H        0.83000    0.12240    0.79580    1.000
    C138     C        0.89190    0.08230    0.88620    1.000
    H101     H        0.87710    0.06230    0.01170    1.000
    C139     C        0.94260    0.07690    0.82540    1.000
    H102     H        0.96210    0.05300    0.91010    1.000
    C140     C        0.96390    0.10730    0.63780    1.000
    H103     H        0.99780    0.10350    0.59840    1.000
    C141     C        0.93580    0.14330    0.50680    1.000
    C142     C        0.95960    0.17240    0.31960    1.000
    H104     H        0.99350    0.16820    0.28100    1.000
    C143     C        0.93020    0.20790    0.19300    1.000
    C144     C        0.98770    0.25800    0.89700    1.000
    C145     C        0.07770    0.28570    0.68300    1.000
    C146     C        0.99570    0.30760    0.83600    1.000
    H105     H        0.97060    0.33120    0.86780    1.000
    C147     C        0.04140    0.32300    0.72700    1.000
    H106     H        0.04730    0.35660    0.68530    1.000
    C148     C        0.07240    0.23430    0.74200    1.000
    H107     H        0.09740    0.21050    0.71280    1.000
    C149     C        0.02540    0.22310    0.84900    1.000
    H108     H        0.01900    0.18970    0.89110    1.000
    C150     C        0.12730    0.29870    0.55700    1.000
    O28      O        0.13200    0.34800    0.49800    1.000
    C151     C        0.98960    0.27690    0.65000    1.000
    H109     H        0.95990    0.28020    0.55650    1.000
    C152     C        0.03440    0.29110    0.53800    1.000
    H110     H        0.03550    0.30380    0.37120    1.000
    C153     C        0.07770    0.26690    0.93000    1.000
    H111     H        0.10740    0.26350    0.02270    1.000
    C154     C        0.03210    0.25340    0.03500    1.000
    H112     H        0.03110    0.24090    0.20170    1.000
    Zn8      Zn       0.28568    0.77245    0.57770    1.000
    O29      O        0.24620    0.72280    0.40550    1.000
    H113     H        0.23520    0.70200    0.51770    1.000
    N15      N        0.35690    0.75420    0.59300    1.000
    C155     C        0.39580    0.76810    0.45740    1.000
    H114     H        0.39350    0.79340    0.33430    1.000
    N16      N        0.43980    0.74370    0.50440    1.000
    C156     C        0.37950    0.71390    0.75430    1.000
    O30      O        0.66740    0.77850    0.13500    1.000
    C157     C        0.35630    0.68450    0.93890    1.000
    H115     H        0.32230    0.68860    0.97610    1.000
    O31      O        0.62630    0.82030    0.83500    1.000
    C158     C        0.38490    0.64870    0.06760    1.000
    C159     C        0.36390    0.61850    0.25550    1.000
    H116     H        0.33000    0.62240    0.29580    1.000
    C160     C        0.39190    0.58230    0.38620    1.000
    H117     H        0.37710    0.56230    0.51170    1.000
    C161     C        0.44260    0.57690    0.32540    1.000
    H118     H        0.46210    0.55300    0.41010    1.000
    C162     C        0.46390    0.60730    0.13780    1.000
    H119     H        0.49780    0.60350    0.09840    1.000
    C163     C        0.43580    0.64330    0.00680    1.000
    C164     C        0.45960    0.67240    0.81960    1.000
    H120     H        0.49350    0.66820    0.78100    1.000
    C165     C        0.43020    0.70790    0.69300    1.000
    C166     C        0.48770    0.75800    0.39700    1.000
    C167     C        0.57770    0.78570    0.18300    1.000
    C168     C        0.49570    0.80760    0.33600    1.000
    H121     H        0.47060    0.83120    0.36780    1.000
    C169     C        0.54140    0.82300    0.22700    1.000
    H122     H        0.54730    0.85660    0.18530    1.000
    C170     C        0.57240    0.73430    0.24200    1.000
    H123     H        0.59740    0.71050    0.21280    1.000
    C171     C        0.52540    0.72310    0.34900    1.000
    H124     H        0.51900    0.68970    0.39110    1.000
    C172     C        0.62730    0.79870    0.05700    1.000
    O32      O        0.63200    0.84800    0.99800    1.000
    C173     C        0.48960    0.77690    0.15000    1.000
    H125     H        0.45990    0.78020    0.05650    1.000
    C174     C        0.53440    0.79110    0.03800    1.000
    H126     H        0.53550    0.80380    0.87120    1.000
    C175     C        0.57770    0.76690    0.43000    1.000
    H127     H        0.60740    0.76350    0.52270    1.000
    C176     C        0.53210    0.75340    0.53500    1.000
    H128     H        0.53110    0.74090    0.70170    1.000
