# CIF file generated by openbabel 3.1.0, see https://openbabel.org
data_I
_chemical_name_common 'image0'
_cell_length_a 8.6222
_cell_length_b 9.5683
_cell_length_c 9.5712
_cell_angle_alpha 109.388
_cell_angle_beta 98.508
_cell_angle_gamma 102.361
_space_group_name_H-M_alt 'P 1'
_space_group_name_Hall 'P 1'
loop_
    _symmetry_equiv_pos_as_xyz
    x,y,z
loop_
    _atom_site_label
    _atom_site_type_symbol
    _atom_site_fract_x
    _atom_site_fract_y
    _atom_site_fract_z
    _atom_site_occupancy
    Nd1      Nd       0.16140    0.22834    0.34985    1.000
    O1       O        0.09760    0.19890    0.07950    1.000
    O2       O        0.20390    0.06780    0.49850    1.000
    O3       O        0.34400    0.46510    0.34530    1.000
    O4       O        0.98240    0.39200    0.31030    1.000
    O5       O        0.56850    0.65970    0.45600    1.000
    O6       O        0.86180    0.57200    0.41180    1.000
    O7       O        0.08360    0.87800    0.56800    1.000
    O8       O        0.00130    0.04000    0.83470    1.000
    C1       C        0.02860    0.06990    0.97670    1.000
    C2       C        0.08260    0.98360    0.51930    1.000
    C3       C        0.47490    0.53560    0.44200    1.000
    C4       C        0.95520    0.48770    0.41950    1.000
    Nd2      Nd       0.83860    0.77166    0.65015    1.000
    O9       O        0.90240    0.80110    0.92050    1.000
    O10      O        0.79610    0.93220    0.50150    1.000
    O11      O        0.65600    0.53490    0.65470    1.000
    O12      O        0.01760    0.60800    0.68970    1.000
    O13      O        0.43150    0.34030    0.54400    1.000
    O14      O        0.13820    0.42800    0.58820    1.000
    O15      O        0.91640    0.12200    0.43200    1.000
    O16      O        0.99870    0.96000    0.16530    1.000
    C5       C        0.97140    0.93010    0.02330    1.000
    C6       C        0.91740    0.01640    0.48070    1.000
    C7       C        0.52510    0.46440    0.55800    1.000
    C8       C        0.04480    0.51230    0.58050    1.000
