# CIF file generated by openbabel 3.1.0, see https://openbabel.org
data_I
_chemical_name_common 'image0'
_cell_length_a 14.6452
_cell_length_b 12.3672
_cell_length_c 16.6648
_cell_angle_alpha 90
_cell_angle_beta 90
_cell_angle_gamma 90
_space_group_name_H-M_alt 'P 1'
_space_group_name_Hall 'P 1'
loop_
    _symmetry_equiv_pos_as_xyz
    x,y,z
loop_
    _atom_site_label
    _atom_site_type_symbol
    _atom_site_fract_x
    _atom_site_fract_y
    _atom_site_fract_z
    _atom_site_occupancy
    O1       O        0.67534    0.48793    0.70085    1.000
    O2       O        0.79050    0.52091    0.98389    1.000
    O3       O        0.59521    0.34538    0.66611    1.000
    O4       O        0.80125    0.36977    0.05109    1.000
    C1       C        0.76860    0.42630    0.99452    1.000
    C2       C        0.63842    0.39760    0.71656    1.000
    C3       C        0.64270    0.35820    0.80239    1.000
    O5       O        0.50136    0.07963    0.87377    1.000
    Mn1      Mn       0.60517    0.48140    0.57834    1.000
    C4       C        0.53700    0.13660    0.92869    1.000
    C5       C        0.65220    0.28160    0.95925    1.000
    H1       H        0.65580    0.25540    0.01270    1.000
    C6       C        0.59630    0.22970    0.90395    1.000
    C7       C        0.70300    0.37190    0.93676    1.000
    C8       C        0.59330    0.26700    0.82546    1.000
    H2       H        0.55710    0.22990    0.78700    1.000
    C9       C        0.69590    0.41190    0.85911    1.000
    H3       H        0.72740    0.47610    0.84460    1.000
    O6       O        0.52298    0.12024    0.00259    1.000
    O7       O        0.82466    0.51207    0.20085    1.000
    O8       O        0.70950    0.47909    0.48389    1.000
    O9       O        0.90479    0.65462    0.16611    1.000
    O10      O        0.69875    0.63023    0.55109    1.000
    C10      C        0.73140    0.57370    0.49452    1.000
    C11      C        0.86158    0.60240    0.21656    1.000
    C12      C        0.85730    0.64180    0.30239    1.000
    O11      O        0.99864    0.92037    0.37377    1.000
    Mn2      Mn       0.89483    0.51860    0.07834    1.000
    C13      C        0.96300    0.86340    0.42869    1.000
    C14      C        0.84780    0.71840    0.45925    1.000
    H4       H        0.84420    0.74460    0.51270    1.000
    C15      C        0.90370    0.77030    0.40395    1.000
    C16      C        0.79700    0.62810    0.43676    1.000
    C17      C        0.90670    0.73300    0.32546    1.000
    H5       H        0.94290    0.77010    0.28700    1.000
    C18      C        0.80410    0.58810    0.35911    1.000
    H6       H        0.77260    0.52390    0.34460    1.000
    O12      O        0.97702    0.87976    0.50259    1.000
    O13      O        0.32466    0.98793    0.79915    1.000
    O14      O        0.20950    0.02091    0.51611    1.000
    O15      O        0.40479    0.84538    0.83389    1.000
    O16      O        0.19875    0.86977    0.44891    1.000
    C19      C        0.23140    0.92630    0.50548    1.000
    C20      C        0.36158    0.89760    0.78344    1.000
    C21      C        0.35730    0.85820    0.69761    1.000
    O17      O        0.49864    0.57963    0.62623    1.000
    Mn3      Mn       0.39483    0.98140    0.92166    1.000
    C22      C        0.46300    0.63660    0.57131    1.000
    C23      C        0.34780    0.78160    0.54075    1.000
    H7       H        0.34420    0.75540    0.48730    1.000
    C24      C        0.40370    0.72970    0.59605    1.000
    C25      C        0.29700    0.87190    0.56324    1.000
    C26      C        0.40670    0.76700    0.67454    1.000
    H8       H        0.44290    0.72990    0.71300    1.000
    C27      C        0.30410    0.91190    0.64089    1.000
    H9       H        0.27260    0.97610    0.65540    1.000
    O18      O        0.47702    0.62024    0.49741    1.000
    O19      O        0.17534    0.01207    0.29915    1.000
    O20      O        0.29050    0.97909    0.01611    1.000
    O21      O        0.09521    0.15462    0.33389    1.000
    O22      O        0.30125    0.13023    0.94891    1.000
    C28      C        0.26860    0.07370    0.00548    1.000
    C29      C        0.13842    0.10240    0.28344    1.000
    C30      C        0.14270    0.14180    0.19761    1.000
    O23      O        0.00136    0.42037    0.12623    1.000
    Mn4      Mn       0.10517    0.01860    0.42166    1.000
    C31      C        0.03700    0.36340    0.07131    1.000
    C32      C        0.15220    0.21840    0.04075    1.000
    H10      H        0.15580    0.24460    0.98730    1.000
    C33      C        0.09630    0.27030    0.09605    1.000
    C34      C        0.20300    0.12810    0.06324    1.000
    C35      C        0.09330    0.23300    0.17454    1.000
    H11      H        0.05710    0.27010    0.21300    1.000
    C36      C        0.19590    0.08810    0.14089    1.000
    H12      H        0.22740    0.02390    0.15540    1.000
    O24      O        0.02298    0.37976    0.99741    1.000
    O25      O        0.32466    0.51207    0.29915    1.000
    O26      O        0.20950    0.47909    0.01611    1.000
    O27      O        0.40479    0.65462    0.33389    1.000
    O28      O        0.19875    0.63023    0.94891    1.000
    C37      C        0.23140    0.57370    0.00548    1.000
    C38      C        0.36158    0.60240    0.28344    1.000
    C39      C        0.35730    0.64180    0.19761    1.000
    O29      O        0.49864    0.92037    0.12623    1.000
    Mn5      Mn       0.39483    0.51860    0.42166    1.000
    C40      C        0.46300    0.86340    0.07131    1.000
    C41      C        0.34780    0.71840    0.04075    1.000
    H13      H        0.34420    0.74460    0.98730    1.000
    C42      C        0.40370    0.77030    0.09605    1.000
    C43      C        0.29700    0.62810    0.06324    1.000
    C44      C        0.40670    0.73300    0.17454    1.000
    H14      H        0.44290    0.77010    0.21300    1.000
    C45      C        0.30410    0.58810    0.14089    1.000
    H15      H        0.27260    0.52390    0.15540    1.000
    O30      O        0.47702    0.87976    0.99741    1.000
    O31      O        0.17534    0.48793    0.79915    1.000
    O32      O        0.29050    0.52091    0.51611    1.000
    O33      O        0.09521    0.34538    0.83389    1.000
    O34      O        0.30125    0.36977    0.44891    1.000
    C46      C        0.26860    0.42630    0.50548    1.000
    C47      C        0.13842    0.39760    0.78344    1.000
    C48      C        0.14270    0.35820    0.69761    1.000
    O35      O        0.00136    0.07963    0.62623    1.000
    Mn6      Mn       0.10517    0.48140    0.92166    1.000
    C49      C        0.03700    0.13660    0.57131    1.000
    C50      C        0.15220    0.28160    0.54075    1.000
    H16      H        0.15580    0.25540    0.48730    1.000
    C51      C        0.09630    0.22970    0.59605    1.000
    C52      C        0.20300    0.37190    0.56324    1.000
    C53      C        0.09330    0.26700    0.67454    1.000
    H17      H        0.05710    0.22990    0.71300    1.000
    C54      C        0.19590    0.41190    0.64089    1.000
    H18      H        0.22740    0.47610    0.65540    1.000
    O36      O        0.02298    0.12024    0.49741    1.000
    O37      O        0.67534    0.01207    0.20085    1.000
    O38      O        0.79050    0.97909    0.48389    1.000
    O39      O        0.59521    0.15462    0.16611    1.000
    O40      O        0.80125    0.13023    0.55109    1.000
    C55      C        0.76860    0.07370    0.49452    1.000
    C56      C        0.63842    0.10240    0.21656    1.000
    C57      C        0.64270    0.14180    0.30239    1.000
    O41      O        0.50136    0.42037    0.37377    1.000
    Mn7      Mn       0.60517    0.01860    0.07834    1.000
    C58      C        0.53700    0.36340    0.42869    1.000
    C59      C        0.65220    0.21840    0.45925    1.000
    H19      H        0.65580    0.24460    0.51270    1.000
    C60      C        0.59630    0.27030    0.40395    1.000
    C61      C        0.70300    0.12810    0.43676    1.000
    C62      C        0.59330    0.23300    0.32546    1.000
    H20      H        0.55710    0.27010    0.28700    1.000
    C63      C        0.69590    0.08810    0.35911    1.000
    H21      H        0.72740    0.02390    0.34460    1.000
    O42      O        0.52298    0.37976    0.50259    1.000
    O43      O        0.82466    0.98793    0.70085    1.000
    O44      O        0.70950    0.02091    0.98389    1.000
    O45      O        0.90479    0.84538    0.66611    1.000
    O46      O        0.69875    0.86977    0.05109    1.000
    C64      C        0.73140    0.92630    0.99452    1.000
    C65      C        0.86158    0.89760    0.71656    1.000
    C66      C        0.85730    0.85820    0.80239    1.000
    O47      O        0.99864    0.57963    0.87377    1.000
    Mn8      Mn       0.89483    0.98140    0.57834    1.000
    C67      C        0.96300    0.63660    0.92869    1.000
    C68      C        0.84780    0.78160    0.95925    1.000
    H22      H        0.84420    0.75540    0.01270    1.000
    C69      C        0.90370    0.72970    0.90395    1.000
    C70      C        0.79700    0.87190    0.93676    1.000
    C71      C        0.90670    0.76700    0.82546    1.000
    H23      H        0.94290    0.72990    0.78700    1.000
    C72      C        0.80410    0.91190    0.85911    1.000
    H24      H        0.77260    0.97610    0.84460    1.000
    O48      O        0.97702    0.62024    0.00259    1.000
