# CIF file generated by openbabel 3.1.0, see https://openbabel.org
data_I
_chemical_name_common 'image0'
_cell_length_a 7.185
_cell_length_b 9.1854
_cell_length_c 21.544
_cell_angle_alpha 90
_cell_angle_beta 90
_cell_angle_gamma 90
_space_group_name_H-M_alt 'P 1'
_space_group_name_Hall 'P 1'
loop_
    _symmetry_equiv_pos_as_xyz
    x,y,z
loop_
    _atom_site_label
    _atom_site_type_symbol
    _atom_site_fract_x
    _atom_site_fract_y
    _atom_site_fract_z
    _atom_site_occupancy
    C1       C        0.91060    0.21040    0.09510    1.000
    C2       C        0.91360    0.25700    0.15320    1.000
    H1       H        0.02750    0.27970    0.17120    1.000
    N1       N        0.64940    0.40080    0.33800    1.000
    N2       N        0.59290    0.35150    0.28550    1.000
    O1       O        0.60590    0.11790    0.97100    1.000
    F1       F        0.09500    0.21000    0.07050    1.000
    C3       C        0.41060    0.71040    0.59510    1.000
    C4       C        0.41360    0.75700    0.65320    1.000
    H2       H        0.52750    0.77970    0.67120    1.000
    N3       N        0.14940    0.90080    0.83800    1.000
    N4       N        0.09290    0.85150    0.78550    1.000
    O2       O        0.10590    0.61790    0.47100    1.000
    F2       F        0.59500    0.71000    0.57050    1.000
    C5       C        0.08940    0.78960    0.09510    1.000
    C6       C        0.08640    0.74300    0.15320    1.000
    H3       H        0.97250    0.72030    0.17120    1.000
    N5       N        0.35060    0.59920    0.33800    1.000
    N6       N        0.40710    0.64850    0.28550    1.000
    O3       O        0.39410    0.88210    0.97100    1.000
    F3       F        0.90500    0.79000    0.07050    1.000
    C7       C        0.58940    0.28960    0.59510    1.000
    C8       C        0.58640    0.24300    0.65320    1.000
    H4       H        0.47250    0.22030    0.67120    1.000
    N7       N        0.85060    0.09920    0.83800    1.000
    N8       N        0.90710    0.14850    0.78550    1.000
    O4       O        0.89410    0.38210    0.47100    1.000
    F4       F        0.40500    0.29000    0.57050    1.000
    C9       C        0.41060    0.78960    0.09510    1.000
    C10      C        0.41360    0.74300    0.15320    1.000
    H5       H        0.52750    0.72030    0.17120    1.000
    N9       N        0.14940    0.59920    0.33800    1.000
    N10      N        0.09290    0.64850    0.28550    1.000
    O5       O        0.10590    0.88210    0.97100    1.000
    F5       F        0.59500    0.79000    0.07050    1.000
    C11      C        0.91060    0.28960    0.59510    1.000
    C12      C        0.91360    0.24300    0.65320    1.000
    H6       H        0.02750    0.22030    0.67120    1.000
    N11      N        0.64940    0.09920    0.83800    1.000
    N12      N        0.59290    0.14850    0.78550    1.000
    O6       O        0.60590    0.38210    0.47100    1.000
    F6       F        0.09500    0.29000    0.57050    1.000
    C13      C        0.58940    0.21040    0.09510    1.000
    C14      C        0.58640    0.25700    0.15320    1.000
    H7       H        0.47250    0.27970    0.17120    1.000
    N13      N        0.85060    0.40080    0.33800    1.000
    N14      N        0.90710    0.35150    0.28550    1.000
    O7       O        0.89410    0.11790    0.97100    1.000
    F7       F        0.40500    0.21000    0.07050    1.000
    C15      C        0.08940    0.71040    0.59510    1.000
    C16      C        0.08640    0.75700    0.65320    1.000
    H8       H        0.97250    0.77970    0.67120    1.000
    N15      N        0.35060    0.90080    0.83800    1.000
    N16      N        0.40710    0.85150    0.78550    1.000
    O8       O        0.39410    0.61790    0.47100    1.000
    F8       F        0.90500    0.71000    0.57050    1.000
    C17      C        0.75000    0.18240    0.06040    1.000
    C18      C        0.75000    0.31400    0.25160    1.000
    C19      C        0.75000    0.13880    0.99560    1.000
    C20      C        0.75000    0.27330    0.18870    1.000
    C21      C        0.25000    0.68240    0.56040    1.000
    C22      C        0.25000    0.81400    0.75160    1.000
    C23      C        0.25000    0.63880    0.49560    1.000
    C24      C        0.25000    0.77330    0.68870    1.000
    C25      C        0.25000    0.81760    0.06040    1.000
    C26      C        0.25000    0.68600    0.25160    1.000
    C27      C        0.25000    0.86120    0.99560    1.000
    C28      C        0.25000    0.72670    0.18870    1.000
    C29      C        0.75000    0.31760    0.56040    1.000
    C30      C        0.75000    0.18600    0.75160    1.000
    C31      C        0.75000    0.36120    0.49560    1.000
    C32      C        0.75000    0.22670    0.68870    1.000
    Cu1      Cu       0.50000    0.50000    0.40360    1.000
    Cu2      Cu       0.00000    0.00000    0.90360    1.000
    Cu3      Cu       0.00000    0.50000    0.40360    1.000
    Cu4      Cu       0.50000    0.00000    0.90360    1.000
