# CIF file generated by openbabel 3.1.0, see https://openbabel.org
data_I
_chemical_name_common 'XEXLIX_clean'
_cell_length_a 5.6415
_cell_length_b 14.847
_cell_length_c 27.633
_cell_angle_alpha 90
_cell_angle_beta 90
_cell_angle_gamma 100.149
_space_group_name_H-M_alt 'P 1'
_space_group_name_Hall 'P 1'
loop_
    _symmetry_equiv_pos_as_xyz
    x,y,z
loop_
    _atom_site_label
    _atom_site_type_symbol
    _atom_site_fract_x
    _atom_site_fract_y
    _atom_site_fract_z
    _atom_site_occupancy
    Zn1      Zn       0.96075    0.58923    0.97628    1.000
    Zn2      Zn       0.53925    0.91077    0.47628    1.000
    Zn3      Zn       0.03925    0.41077    0.02372    1.000
    Zn4      Zn       0.46075    0.08923    0.52372    1.000
    H1       H        0.23980    0.76050    0.42280    1.000
    H2       H        0.22270    0.69740    0.34560    1.000
    H3       H        0.91670    0.82060    0.32490    1.000
    H4       H        0.91820    0.87900    0.40370    1.000
    H5       H        0.92080    0.53740    0.22500    1.000
    H6       H        0.91380    0.48600    0.14490    1.000
    H7       H        0.14020    0.75170    0.09170    1.000
    H8       H        0.16310    0.80490    0.17200    1.000
    H9       H        0.26020    0.73950    0.92280    1.000
    H10      H        0.27730    0.80260    0.84560    1.000
    H11      H        0.58330    0.67940    0.82490    1.000
    H12      H        0.58180    0.62100    0.90370    1.000
    H13      H        0.57920    0.96260    0.72500    1.000
    H14      H        0.58620    0.01400    0.64490    1.000
    H15      H        0.35980    0.74830    0.59170    1.000
    H16      H        0.33690    0.69510    0.67200    1.000
    H17      H        0.76020    0.23950    0.57720    1.000
    H18      H        0.77730    0.30260    0.65440    1.000
    H19      H        0.08330    0.17940    0.67510    1.000
    H20      H        0.08180    0.12100    0.59630    1.000
    H21      H        0.07920    0.46260    0.77500    1.000
    H22      H        0.08620    0.51400    0.85510    1.000
    H23      H        0.85980    0.24830    0.90830    1.000
    H24      H        0.83690    0.19510    0.82800    1.000
    H25      H        0.73980    0.26050    0.07720    1.000
    H26      H        0.72270    0.19740    0.15440    1.000
    H27      H        0.41670    0.32060    0.17510    1.000
    H28      H        0.41820    0.37900    0.09630    1.000
    H29      H        0.42080    0.03740    0.27500    1.000
    H30      H        0.41380    0.98600    0.35510    1.000
    H31      H        0.64020    0.25170    0.40830    1.000
    H32      H        0.66310    0.30490    0.32800    1.000
    C1       C        0.37790    0.77310    0.40260    1.000
    C2       C        0.36540    0.73570    0.35666    1.000
    C3       C        0.56510    0.75520    0.32730    1.000
    C4       C        0.77630    0.80830    0.34447    1.000
    C5       C        0.77530    0.84290    0.39129    1.000
    C6       C        0.70690    0.66010    0.26552    1.000
    C7       C        0.69350    0.62750    0.21463    1.000
    C8       C        0.54080    0.66060    0.18068    1.000
    C9       C        0.39850    0.72580    0.19502    1.000
    C10      C        0.39630    0.75670    0.24630    1.000
    C11      C        0.82610    0.56170    0.20153    1.000
    C12      C        0.82070    0.53090    0.15366    1.000
    C13      C        0.68410    0.56390    0.11902    1.000
    C14      C        0.53010    0.62840    0.13192    1.000
    C15      C        0.36560    0.66020    0.09936    1.000
    C16      C        0.23880    0.72720    0.11430    1.000
    C17      C        0.25340    0.75970    0.16231    1.000
    C18      C        0.72920    0.53870    0.06708    1.000
    C19      C        0.28430    0.61210    0.05232    1.000
    C20      C        0.12210    0.72690    0.90260    1.000
    C21      C        0.13460    0.76430    0.85666    1.000
    C22      C        0.93490    0.74480    0.82730    1.000
    C23      C        0.72370    0.69170    0.84447    1.000
    C24      C        0.72470    0.65710    0.89129    1.000
    C25      C        0.79310    0.83990    0.76552    1.000
    C26      C        0.80650    0.87250    0.71463    1.000
    C27      C        0.95920    0.83940    0.68068    1.000
    C28      C        0.10150    0.77420    0.69502    1.000
    C29      C        0.10370    0.74330    0.74630    1.000
    C30      C        0.67390    0.93830    0.70153    1.000
    C31      C        0.67930    0.96910    0.65366    1.000
    C32      C        0.81590    0.93610    0.61902    1.000
    C33      C        0.96990    0.87160    0.63192    1.000
    C34      C        0.13440    0.83980    0.59936    1.000
    C35      C        0.26120    0.77280    0.61430    1.000
    C36      C        0.24660    0.74030    0.66231    1.000
    C37      C        0.77080    0.96130    0.56708    1.000
    C38      C        0.21570    0.88790    0.55232    1.000
    C39      C        0.62210    0.22690    0.59740    1.000
    C40      C        0.63460    0.26430    0.64334    1.000
    C41      C        0.43490    0.24480    0.67270    1.000
    C42      C        0.22370    0.19170    0.65553    1.000
    C43      C        0.22470    0.15710    0.60871    1.000
    C44      C        0.29310    0.33990    0.73448    1.000
    C45      C        0.30650    0.37250    0.78537    1.000
    C46      C        0.45920    0.33940    0.81932    1.000
    C47      C        0.60150    0.27420    0.80498    1.000
    C48      C        0.60370    0.24330    0.75370    1.000
    C49      C        0.17390    0.43830    0.79847    1.000
    C50      C        0.17930    0.46910    0.84634    1.000
    C51      C        0.31590    0.43610    0.88098    1.000
    C52      C        0.46990    0.37160    0.86808    1.000
    C53      C        0.63440    0.33980    0.90064    1.000
    C54      C        0.76120    0.27280    0.88570    1.000
    C55      C        0.74660    0.24030    0.83769    1.000
    C56      C        0.27080    0.46130    0.93292    1.000
    C57      C        0.71570    0.38790    0.94768    1.000
    C58      C        0.87790    0.27310    0.09740    1.000
    C59      C        0.86540    0.23570    0.14334    1.000
    C60      C        0.06510    0.25520    0.17270    1.000
    C61      C        0.27630    0.30830    0.15553    1.000
    C62      C        0.27530    0.34290    0.10871    1.000
    C63      C        0.20690    0.16010    0.23448    1.000
    C64      C        0.19350    0.12750    0.28537    1.000
    C65      C        0.04080    0.16060    0.31932    1.000
    C66      C        0.89850    0.22580    0.30498    1.000
    C67      C        0.89630    0.25670    0.25370    1.000
    C68      C        0.32610    0.06170    0.29847    1.000
    C69      C        0.32070    0.03090    0.34634    1.000
    C70      C        0.18410    0.06390    0.38098    1.000
    C71      C        0.03010    0.12840    0.36808    1.000
    C72      C        0.86560    0.16020    0.40064    1.000
    C73      C        0.73880    0.22720    0.38570    1.000
    C74      C        0.75340    0.25970    0.33769    1.000
    C75      C        0.22920    0.03870    0.43292    1.000
    C76      C        0.78430    0.11210    0.44768    1.000
    N1       N        0.57620    0.82650    0.41978    1.000
    N2       N        0.55570    0.72270    0.27776    1.000
    N3       N        0.92380    0.67350    0.91978    1.000
    N4       N        0.94430    0.77730    0.77776    1.000
    N5       N        0.42380    0.17350    0.58022    1.000
    N6       N        0.44430    0.27730    0.72224    1.000
    N7       N        0.07620    0.32650    0.08022    1.000
    N8       N        0.05570    0.22270    0.22224    1.000
    O1       O        0.75660    0.60150    0.03573    1.000
    O2       O        0.76230    0.45740    0.06093    1.000
    O3       O        0.23210    0.66180    0.01814    1.000
    O4       O        0.24780    0.52590    0.05396    1.000
    O5       O        0.27090    0.80920    0.26105    1.000
    O6       O        0.83900    0.63530    0.29599    1.000
    O7       O        0.74340    0.89850    0.53573    1.000
    O8       O        0.73770    0.04260    0.56093    1.000
    O9       O        0.26790    0.83820    0.51814    1.000
    O10      O        0.25220    0.97410    0.55396    1.000
    O11      O        0.22910    0.69080    0.76105    1.000
    O12      O        0.66100    0.86470    0.79599    1.000
    O13      O        0.24340    0.39850    0.96427    1.000
    O14      O        0.23770    0.54260    0.93907    1.000
    O15      O        0.76790    0.33820    0.98186    1.000
    O16      O        0.75220    0.47410    0.94604    1.000
    O17      O        0.72910    0.19080    0.73895    1.000
    O18      O        0.16100    0.36470    0.70401    1.000
    O19      O        0.25660    0.10150    0.46427    1.000
    O20      O        0.26230    0.95740    0.43907    1.000
    O21      O        0.73210    0.16180    0.48186    1.000
    O22      O        0.74780    0.02590    0.44604    1.000
    O23      O        0.77090    0.30920    0.23895    1.000
    O24      O        0.33900    0.13530    0.20401    1.000
