# CIF file generated by openbabel 3.1.0, see https://openbabel.org
data_I
_chemical_name_common 'TILDIC_clean'
_cell_length_a 7.942
_cell_length_b 8.4643
_cell_length_c 19.644
_cell_angle_alpha 87.8699
_cell_angle_beta 85.4559
_cell_angle_gamma 62.0211
_space_group_name_H-M_alt 'P 1'
_space_group_name_Hall 'P 1'
loop_
    _symmetry_equiv_pos_as_xyz
    x,y,z
loop_
    _atom_site_label
    _atom_site_type_symbol
    _atom_site_fract_x
    _atom_site_fract_y
    _atom_site_fract_z
    _atom_site_occupancy
    Tb1      Tb       0.79345    0.92574    0.48774    1.000
    Tb2      Tb       0.28081    0.92574    0.01226    1.000
    Tb3      Tb       0.20655    0.07426    0.51226    1.000
    Tb4      Tb       0.71919    0.07426    0.98774    1.000
    H1       H        0.24470    0.53380    0.32180    1.000
    H2       H        0.05570    0.55160    0.29520    1.000
    H3       H        0.00970    0.80680    0.23450    1.000
    H4       H        0.67880    0.52900    0.46100    1.000
    H5       H        0.85120    0.43920    0.40650    1.000
    H6       H        0.64080    0.45680    0.32530    1.000
    H7       H        0.46800    0.54600    0.37980    1.000
    H8       H        0.50590    0.75980    0.30240    1.000
    H9       H        0.69640    0.71400    0.33620    1.000
    H10      H        0.22150    0.53380    0.17820    1.000
    H11      H        0.39270    0.55160    0.20480    1.000
    H12      H        0.18350    0.80680    0.26550    1.000
    H13      H        0.79220    0.52900    0.03900    1.000
    H14      H        0.70960    0.43920    0.09350    1.000
    H15      H        0.90240    0.45680    0.17470    1.000
    H16      H        0.98600    0.54600    0.12020    1.000
    H17      H        0.73430    0.75980    0.19760    1.000
    H18      H        0.58960    0.71400    0.16380    1.000
    H19      H        0.75530    0.46620    0.67820    1.000
    H20      H        0.94430    0.44840    0.70480    1.000
    H21      H        0.99030    0.19320    0.76550    1.000
    H22      H        0.32120    0.47100    0.53900    1.000
    H23      H        0.14880    0.56080    0.59350    1.000
    H24      H        0.35920    0.54320    0.67470    1.000
    H25      H        0.53200    0.45400    0.62020    1.000
    H26      H        0.49410    0.24020    0.69760    1.000
    H27      H        0.30360    0.28600    0.66380    1.000
    H28      H        0.77850    0.46620    0.82180    1.000
    H29      H        0.60730    0.44840    0.79520    1.000
    H30      H        0.81650    0.19320    0.73450    1.000
    H31      H        0.20780    0.47100    0.96100    1.000
    H32      H        0.29040    0.56080    0.90650    1.000
    H33      H        0.09760    0.54320    0.82530    1.000
    H34      H        0.01400    0.45400    0.87980    1.000
    H35      H        0.26570    0.24020    0.80240    1.000
    H36      H        0.41040    0.28600    0.83620    1.000
    C1       C        0.00600    0.72660    0.37190    1.000
    C2       C        0.11730    0.61900    0.30960    1.000
    C3       C        0.75250    0.26920    0.44380    1.000
    C4       C        0.72720    0.44980    0.42180    1.000
    C5       C        0.59260    0.53460    0.36490    1.000
    C6       C        0.57090    0.72120    0.34430    1.000
    C7       C        0.45940    0.85380    0.39960    1.000
    C8       C        0.26740    0.72660    0.12810    1.000
    C9       C        0.26370    0.61900    0.19040    1.000
    C10      C        0.97830    0.26920    0.05620    1.000
    C11      C        0.82300    0.44980    0.07820    1.000
    C12      C        0.87280    0.53460    0.13510    1.000
    C13      C        0.70790    0.72120    0.15570    1.000
    C14      C        0.68680    0.85380    0.10040    1.000
    C15      C        0.99400    0.27340    0.62810    1.000
    C16      C        0.88270    0.38100    0.69040    1.000
    C17      C        0.24750    0.73080    0.55620    1.000
    C18      C        0.27280    0.55020    0.57820    1.000
    C19      C        0.40740    0.46540    0.63510    1.000
    C20      C        0.42910    0.27880    0.65570    1.000
    C21      C        0.54060    0.14620    0.60040    1.000
    C22      C        0.73260    0.27340    0.87190    1.000
    C23      C        0.73630    0.38100    0.80960    1.000
    C24      C        0.02170    0.73080    0.94380    1.000
    C25      C        0.17700    0.55020    0.92180    1.000
    C26      C        0.12720    0.46540    0.86490    1.000
    C27      C        0.29210    0.27880    0.84430    1.000
    C28      C        0.31320    0.14620    0.89960    1.000
    C29      C        0.13440    0.73120    0.25000    1.000
    C30      C        0.86560    0.26880    0.75000    1.000
    O1       O        0.90670    0.89220    0.36920    1.000
    O2       O        0.01110    0.64480    0.42830    1.000
    O3       O        0.61930    0.22660    0.44130    1.000
    O4       O        0.91040    0.15560    0.46640    1.000
    O5       O        0.53900    0.91040    0.43940    1.000
    O6       O        0.28200    0.90580    0.40830    1.000
    O7       O        0.20110    0.89220    0.13080    1.000
    O8       O        0.34410    0.64480    0.07170    1.000
    O9       O        0.15410    0.22660    0.05870    1.000
    O10      O        0.93400    0.15560    0.03360    1.000
    O11      O        0.55060    0.91040    0.06060    1.000
    O12      O        0.81220    0.90580    0.09170    1.000
    O13      O        0.09330    0.10780    0.63080    1.000
    O14      O        0.98890    0.35520    0.57170    1.000
    O15      O        0.38070    0.77340    0.55870    1.000
    O16      O        0.08960    0.84440    0.53360    1.000
    O17      O        0.46100    0.08960    0.56060    1.000
    O18      O        0.71800    0.09420    0.59170    1.000
    O19      O        0.79890    0.10780    0.86920    1.000
    O20      O        0.65590    0.35520    0.92830    1.000
    O21      O        0.84590    0.77340    0.94130    1.000
    O22      O        0.06600    0.84440    0.96640    1.000
    O23      O        0.44940    0.08960    0.93940    1.000
    O24      O        0.18780    0.09420    0.90830    1.000
