# CIF file generated by openbabel 3.1.0, see https://openbabel.org
data_I
_chemical_name_common 'image0'
_cell_length_a 9.1699
_cell_length_b 15.6055
_cell_length_c 13.5026
_cell_angle_alpha 90
_cell_angle_beta 107.162
_cell_angle_gamma 90
_space_group_name_H-M_alt 'P 1'
_space_group_name_Hall 'P 1'
loop_
    _symmetry_equiv_pos_as_xyz
    x,y,z
loop_
    _atom_site_label
    _atom_site_type_symbol
    _atom_site_fract_x
    _atom_site_fract_y
    _atom_site_fract_z
    _atom_site_occupancy
    Zn1      Zn       0.61984    0.44900    0.75077    1.000
    Zn2      Zn       0.87283    0.25382    0.74873    1.000
    O1       O        0.96950    0.35912    0.81819    1.000
    O2       O        0.80844    0.44740    0.86333    1.000
    C1       C        0.06920    0.48540    0.90740    1.000
    C2       C        0.05950    0.54530    0.98090    1.000
    H1       H        0.97170    0.54940    0.00170    1.000
    C3       C        0.18330    0.59960    0.02350    1.000
    C4       C        0.31340    0.59360    0.99070    1.000
    H2       H        0.39460    0.63070    0.01820    1.000
    C5       C        0.32410    0.53340    0.91780    1.000
    C6       C        0.20130    0.47860    0.87680    1.000
    H3       H        0.20750    0.43710    0.82870    1.000
    C7       C        0.93880    0.42587    0.85870    1.000
    O3       O        0.05830    0.66637    0.13510    1.000
    C8       C        0.17720    0.66350    0.10510    1.000
    O4       O        0.28840    0.71132    0.14360    1.000
    O5       O        0.56810    0.57940    0.91030    1.000
    C9       C        0.46450    0.52640    0.88210    1.000
    O6       O        0.46320    0.46345    0.82116    1.000
    O7       O        0.52280    0.34390    0.68143    1.000
    O8       O        0.68321    0.25450    0.63565    1.000
    C10      C        0.42060    0.22090    0.58800    1.000
    C11      C        0.43010    0.15920    0.51580    1.000
    H4       H        0.51820    0.15480    0.49540    1.000
    C12      C        0.30770    0.10420    0.47400    1.000
    C13      C        0.17690    0.10970    0.50630    1.000
    H5       H        0.09670    0.07160    0.48020    1.000
    C14      C        0.16600    0.17190    0.57750    1.000
    C15      C        0.28840    0.22730    0.61750    1.000
    H6       H        0.28130    0.26930    0.66480    1.000
    C16      C        0.55330    0.27725    0.63880    1.000
    O9       O        0.43440    0.03677    0.36263    1.000
    C17      C        0.31430    0.03810    0.39470    1.000
    O10      O        0.20650    0.98908    0.35830    1.000
    O11      O        0.92410    0.12458    0.58910    1.000
    C18      C        0.02700    0.17760    0.61520    1.000
    O12      O        0.02750    0.24032    0.67582    1.000
    Zn3      Zn       0.38016    0.94900    0.24923    1.000
    Zn4      Zn       0.12717    0.75382    0.25127    1.000
    O13      O        0.03050    0.85912    0.18181    1.000
    O14      O        0.19156    0.94740    0.13667    1.000
    C19      C        0.93080    0.98540    0.09260    1.000
    C20      C        0.94050    0.04530    0.01910    1.000
    H7       H        0.02830    0.04940    0.99830    1.000
    C21      C        0.81670    0.09960    0.97650    1.000
    C22      C        0.68660    0.09360    0.00930    1.000
    H8       H        0.60540    0.13070    0.98180    1.000
    C23      C        0.67590    0.03340    0.08220    1.000
    C24      C        0.79870    0.97860    0.12320    1.000
    H9       H        0.79250    0.93710    0.17130    1.000
    C25      C        0.06120    0.92587    0.14130    1.000
    O15      O        0.94170    0.16637    0.86490    1.000
    C26      C        0.82280    0.16350    0.89490    1.000
    O16      O        0.71160    0.21132    0.85640    1.000
    O17      O        0.43190    0.07940    0.08970    1.000
    C27      C        0.53550    0.02640    0.11790    1.000
    O18      O        0.53680    0.96345    0.17884    1.000
    O19      O        0.47720    0.84390    0.31857    1.000
    O20      O        0.31679    0.75450    0.36435    1.000
    C28      C        0.57940    0.72090    0.41200    1.000
    C29      C        0.56990    0.65920    0.48420    1.000
    H10      H        0.48180    0.65480    0.50460    1.000
    C30      C        0.69230    0.60420    0.52600    1.000
    C31      C        0.82310    0.60970    0.49370    1.000
    H11      H        0.90330    0.57160    0.51980    1.000
    C32      C        0.83400    0.67190    0.42250    1.000
    C33      C        0.71160    0.72730    0.38250    1.000
    H12      H        0.71870    0.76930    0.33520    1.000
    C34      C        0.44670    0.77725    0.36120    1.000
    O21      O        0.56560    0.53677    0.63737    1.000
    C35      C        0.68570    0.53810    0.60530    1.000
    O22      O        0.79350    0.48908    0.64170    1.000
    O23      O        0.07590    0.62458    0.41090    1.000
    C36      C        0.97300    0.67760    0.38480    1.000
    O24      O        0.97250    0.74032    0.32418    1.000
