# CIF file generated by openbabel 3.1.0, see https://openbabel.org
data_I
_chemical_name_common 'image0'
_cell_length_a 34.026
_cell_length_b 15.046
_cell_length_c 30.424
_cell_angle_alpha 90
_cell_angle_beta 100.625
_cell_angle_gamma 90
_space_group_name_H-M_alt 'P 1'
_space_group_name_Hall 'P 1'
loop_
    _symmetry_equiv_pos_as_xyz
    x,y,z
loop_
    _atom_site_label
    _atom_site_type_symbol
    _atom_site_fract_x
    _atom_site_fract_y
    _atom_site_fract_z
    _atom_site_occupancy
    Zn1      Zn       0.08216    0.62490    0.09429    1.000
    I1       I        0.12053    0.73646    0.05685    1.000
    I2       I        0.02607    0.65877    0.13594    1.000
    Zn2      Zn       0.36960    0.59790    0.44370    1.000
    I3       I        0.38920    0.73754    0.40604    1.000
    I4       I        0.34376    0.59510    0.51679    1.000
    Zn3      Zn       0.17667    0.85730    0.27457    1.000
    I5       I        0.24065    0.77286    0.30374    1.000
    I6       I        0.13504    0.83048    0.19717    1.000
    N1       N        0.12178    0.55100    0.14033    1.000
    C1       C        0.11430    0.46560    0.14720    1.000
    H1       H        0.09320    0.43720    0.12730    1.000
    C2       C        0.13550    0.41660    0.18170    1.000
    H2       H        0.12880    0.35620    0.18550    1.000
    C3       C        0.16650    0.45550    0.21060    1.000
    C4       C        0.17530    0.54360    0.20260    1.000
    H3       H        0.19680    0.57300    0.22140    1.000
    C5       C        0.15240    0.58770    0.16710    1.000
    H4       H        0.15900    0.64760    0.16170    1.000
    C6       C        0.18950    0.40560    0.24790    1.000
    N2       N        0.17937    0.31940    0.25110    1.000
    C7       C        0.20290    0.27460    0.28470    1.000
    N3       N        0.23187    0.30920    0.31460    1.000
    C8       C        0.23800    0.39580    0.30930    1.000
    N4       N        0.21826    0.44670    0.27570    1.000
    C9       C        0.19660    0.17670    0.28410    1.000
    C10      C        0.16740    0.13860    0.25220    1.000
    H5       H        0.15040    0.17470    0.23120    1.000
    C11      C        0.16310    0.04800    0.25110    1.000
    H6       H        0.14280    0.02300    0.22890    1.000
    N5       N        0.18570    0.99290    0.27940    1.000
    C12      C        0.21410    0.03040    0.31030    1.000
    H7       H        0.23090    0.99250    0.33060    1.000
    C13      C        0.22020    0.12070    0.31410    1.000
    H8       H        0.24040    0.14430    0.33690    1.000
    C14      C        0.26860    0.44220    0.34260    1.000
    C15      C        0.28950    0.39800    0.37890    1.000
    H9       H        0.28490    0.33670    0.38360    1.000
    C16      C        0.31730    0.44480    0.40840    1.000
    H10      H        0.33090    0.41500    0.43430    1.000
    N6       N        0.32630    0.53060    0.40260    1.000
    C17      C        0.30550    0.57130    0.36680    1.000
    H11      H        0.31120    0.63200    0.36220    1.000
    C18      C        0.27680    0.53120    0.33660    1.000
    H12      H        0.26250    0.56340    0.31180    1.000
    N7       N        0.06470    0.52350    0.04860    1.000
    C19      C        0.03330    0.47010    0.05080    1.000
    H13      H        0.01530    0.48510    0.07010    1.000
    C20      C        0.02680    0.39260    0.02480    1.000
    H14      H        0.00460    0.35560    0.02650    1.000
    C21      C        0.05200    0.37090    0.99780    1.000
    C22      C        0.08370    0.42710    0.99480    1.000
    H15      H        0.10150    0.41460    0.97490    1.000
    C23      C        0.08870    0.50230    0.02170    1.000
    H16      H        0.11080    0.54010    0.02040    1.000
    C24      C        0.04660    0.28850    0.96960    1.000
    N8       N        0.07120    0.27840    0.94050    1.000
    C25      C        0.06460    0.20490    0.91420    1.000
    N9       N        0.03540    0.14700    0.91640    1.000
    C26      C        0.01370    0.16320    0.94710    1.000
    N10      N        0.01810    0.23330    0.97560    1.000
    C27      C        0.09110    0.19110    0.88170    1.000
    C28      C        0.12730    0.23470    0.88470    1.000
    H17      H        0.13550    0.27580    0.90830    1.000
    C29      C        0.15110    0.22000    0.85490    1.000
    H18      H        0.17530    0.25240    0.85750    1.000
    N11      N        0.14160    0.16100    0.82170    1.000
    C30      C        0.10820    0.11610    0.81960    1.000
    H19      H        0.10190    0.07310    0.79650    1.000
    C31      C        0.08170    0.12660    0.84810    1.000
    H20      H        0.05800    0.09180    0.84530    1.000
    C32      C        0.98010    0.10260    0.95050    1.000
    C33      C        0.96290    0.05420    0.91170    1.000
    H21      H        0.97230    0.05950    0.88430    1.000
    C34      C        0.93120    0.99810    0.91640    1.000
    H22      H        0.91980    0.96420    0.89090    1.000
    N12      N        0.91640    0.98800    0.95060    1.000
    C35      C        0.93170    0.03660    0.98740    1.000
    H23      H        0.92070    0.03200    0.01390    1.000
    C36      C        0.96380    0.09370    0.98580    1.000
    H24      H        0.97430    0.12760    0.01170    1.000
    Zn4      Zn       0.36410    0.59090    0.45980    1.000
    I7       I        0.37960    0.73850    0.42620    1.000
    I8       I        0.34130    0.56230    0.53190    1.000
    Zn5      Zn       0.58216    0.12490    0.09429    1.000
    I9       I        0.62053    0.23646    0.05685    1.000
    I10      I        0.52607    0.15877    0.13594    1.000
    Zn6      Zn       0.86960    0.09790    0.44370    1.000
    I11      I        0.88920    0.23754    0.40604    1.000
    I12      I        0.84376    0.09510    0.51679    1.000
    Zn7      Zn       0.67667    0.35730    0.27457    1.000
    I13      I        0.74065    0.27286    0.30374    1.000
    I14      I        0.63504    0.33048    0.19717    1.000
    N13      N        0.62178    0.05100    0.14033    1.000
    C37      C        0.61430    0.96560    0.14720    1.000
    H25      H        0.59320    0.93720    0.12730    1.000
    C38      C        0.63550    0.91660    0.18170    1.000
    H26      H        0.62880    0.85620    0.18550    1.000
    C39      C        0.66650    0.95550    0.21060    1.000
    C40      C        0.67530    0.04360    0.20260    1.000
    H27      H        0.69680    0.07300    0.22140    1.000
    C41      C        0.65240    0.08770    0.16710    1.000
    H28      H        0.65900    0.14760    0.16170    1.000
    C42      C        0.68950    0.90560    0.24790    1.000
    N14      N        0.67937    0.81940    0.25110    1.000
    C43      C        0.70290    0.77460    0.28470    1.000
    N15      N        0.73187    0.80920    0.31460    1.000
    C44      C        0.73800    0.89580    0.30930    1.000
    N16      N        0.71826    0.94670    0.27570    1.000
    C45      C        0.69660    0.67670    0.28410    1.000
    C46      C        0.66740    0.63860    0.25220    1.000
    H29      H        0.65040    0.67470    0.23120    1.000
    C47      C        0.66310    0.54800    0.25110    1.000
    H30      H        0.64280    0.52300    0.22890    1.000
    N17      N        0.68570    0.49290    0.27940    1.000
    C48      C        0.71410    0.53040    0.31030    1.000
    H31      H        0.73090    0.49250    0.33060    1.000
    C49      C        0.72020    0.62070    0.31410    1.000
    H32      H        0.74040    0.64430    0.33690    1.000
    C50      C        0.76860    0.94220    0.34260    1.000
    C51      C        0.78950    0.89800    0.37890    1.000
    H33      H        0.78490    0.83670    0.38360    1.000
    C52      C        0.81730    0.94480    0.40840    1.000
    H34      H        0.83090    0.91500    0.43430    1.000
    N18      N        0.82630    0.03060    0.40260    1.000
    C53      C        0.80550    0.07130    0.36680    1.000
    H35      H        0.81120    0.13200    0.36220    1.000
    C54      C        0.77680    0.03120    0.33660    1.000
    H36      H        0.76250    0.06340    0.31180    1.000
    N19      N        0.56470    0.02350    0.04860    1.000
    C55      C        0.53330    0.97010    0.05080    1.000
    H37      H        0.51530    0.98510    0.07010    1.000
    C56      C        0.52680    0.89260    0.02480    1.000
    H38      H        0.50460    0.85560    0.02650    1.000
    C57      C        0.55200    0.87090    0.99780    1.000
    C58      C        0.58370    0.92710    0.99480    1.000
    H39      H        0.60150    0.91460    0.97490    1.000
    C59      C        0.58870    0.00230    0.02170    1.000
    H40      H        0.61080    0.04010    0.02040    1.000
    C60      C        0.54660    0.78850    0.96960    1.000
    N20      N        0.57120    0.77840    0.94050    1.000
    C61      C        0.56460    0.70490    0.91420    1.000
    N21      N        0.53540    0.64700    0.91640    1.000
    C62      C        0.51370    0.66320    0.94710    1.000
    N22      N        0.51810    0.73330    0.97560    1.000
    C63      C        0.59110    0.69110    0.88170    1.000
    C64      C        0.62730    0.73470    0.88470    1.000
    H41      H        0.63550    0.77580    0.90830    1.000
    C65      C        0.65110    0.72000    0.85490    1.000
    H42      H        0.67530    0.75240    0.85750    1.000
    N23      N        0.64160    0.66100    0.82170    1.000
    C66      C        0.60820    0.61610    0.81960    1.000
    H43      H        0.60190    0.57310    0.79650    1.000
    C67      C        0.58170    0.62660    0.84810    1.000
    H44      H        0.55800    0.59180    0.84530    1.000
    C68      C        0.48010    0.60260    0.95050    1.000
    C69      C        0.46290    0.55420    0.91170    1.000
    H45      H        0.47230    0.55950    0.88430    1.000
    C70      C        0.43120    0.49810    0.91640    1.000
    H46      H        0.41980    0.46420    0.89090    1.000
    N24      N        0.41640    0.48800    0.95060    1.000
    C71      C        0.43170    0.53660    0.98740    1.000
    H47      H        0.42070    0.53200    0.01390    1.000
    C72      C        0.46380    0.59370    0.98580    1.000
    H48      H        0.47430    0.62760    0.01170    1.000
    Zn8      Zn       0.86410    0.09090    0.45980    1.000
    I15      I        0.87960    0.23850    0.42620    1.000
    I16      I        0.84130    0.06230    0.53190    1.000
    Zn9      Zn       0.08216    0.37510    0.59429    1.000
    I17      I        0.12053    0.26354    0.55685    1.000
    I18      I        0.02607    0.34123    0.63594    1.000
    Zn10     Zn       0.36960    0.40210    0.94370    1.000
    I19      I        0.38920    0.26246    0.90604    1.000
    I20      I        0.34376    0.40490    0.01679    1.000
    Zn11     Zn       0.17667    0.14270    0.77457    1.000
    I21      I        0.24065    0.22714    0.80374    1.000
    I22      I        0.13504    0.16952    0.69717    1.000
    N25      N        0.12178    0.44900    0.64033    1.000
    C73      C        0.11430    0.53440    0.64720    1.000
    H49      H        0.09320    0.56280    0.62730    1.000
    C74      C        0.13550    0.58340    0.68170    1.000
    H50      H        0.12880    0.64380    0.68550    1.000
    C75      C        0.16650    0.54450    0.71060    1.000
    C76      C        0.17530    0.45640    0.70260    1.000
    H51      H        0.19680    0.42700    0.72140    1.000
    C77      C        0.15240    0.41230    0.66710    1.000
    H52      H        0.15900    0.35240    0.66170    1.000
    C78      C        0.18950    0.59440    0.74790    1.000
    N26      N        0.17937    0.68060    0.75110    1.000
    C79      C        0.20290    0.72540    0.78470    1.000
    N27      N        0.23187    0.69080    0.81460    1.000
    C80      C        0.23800    0.60420    0.80930    1.000
    N28      N        0.21826    0.55330    0.77570    1.000
    C81      C        0.19660    0.82330    0.78410    1.000
    C82      C        0.16740    0.86140    0.75220    1.000
    H53      H        0.15040    0.82530    0.73120    1.000
    C83      C        0.16310    0.95200    0.75110    1.000
    H54      H        0.14280    0.97700    0.72890    1.000
    N29      N        0.18570    0.00710    0.77940    1.000
    C84      C        0.21410    0.96960    0.81030    1.000
    H55      H        0.23090    0.00750    0.83060    1.000
    C85      C        0.22020    0.87930    0.81410    1.000
    H56      H        0.24040    0.85570    0.83690    1.000
    C86      C        0.26860    0.55780    0.84260    1.000
    C87      C        0.28950    0.60200    0.87890    1.000
    H57      H        0.28490    0.66330    0.88360    1.000
    C88      C        0.31730    0.55520    0.90840    1.000
    H58      H        0.33090    0.58500    0.93430    1.000
    N30      N        0.32630    0.46940    0.90260    1.000
    C89      C        0.30550    0.42870    0.86680    1.000
    H59      H        0.31120    0.36800    0.86220    1.000
    C90      C        0.27680    0.46880    0.83660    1.000
    H60      H        0.26250    0.43660    0.81180    1.000
    N31      N        0.06470    0.47650    0.54860    1.000
    C91      C        0.03330    0.52990    0.55080    1.000
    H61      H        0.01530    0.51490    0.57010    1.000
    C92      C        0.02680    0.60740    0.52480    1.000
    H62      H        0.00460    0.64440    0.52650    1.000
    C93      C        0.05200    0.62910    0.49780    1.000
    C94      C        0.08370    0.57290    0.49480    1.000
    H63      H        0.10150    0.58540    0.47490    1.000
    C95      C        0.08870    0.49770    0.52170    1.000
    H64      H        0.11080    0.45990    0.52040    1.000
    C96      C        0.04660    0.71150    0.46960    1.000
    N32      N        0.07120    0.72160    0.44050    1.000
    C97      C        0.06460    0.79510    0.41420    1.000
    N33      N        0.03540    0.85300    0.41640    1.000
    C98      C        0.01370    0.83680    0.44710    1.000
    N34      N        0.01810    0.76670    0.47560    1.000
    C99      C        0.09110    0.80890    0.38170    1.000
    C100     C        0.12730    0.76530    0.38470    1.000
    H65      H        0.13550    0.72420    0.40830    1.000
    C101     C        0.15110    0.78000    0.35490    1.000
    H66      H        0.17530    0.74760    0.35750    1.000
    N35      N        0.14160    0.83900    0.32170    1.000
    C102     C        0.10820    0.88390    0.31960    1.000
    H67      H        0.10190    0.92690    0.29650    1.000
    C103     C        0.08170    0.87340    0.34810    1.000
    H68      H        0.05800    0.90820    0.34530    1.000
    C104     C        0.98010    0.89740    0.45050    1.000
    C105     C        0.96290    0.94580    0.41170    1.000
    H69      H        0.97230    0.94050    0.38430    1.000
    C106     C        0.93120    0.00190    0.41640    1.000
    H70      H        0.91980    0.03580    0.39090    1.000
    N36      N        0.91640    0.01200    0.45060    1.000
    C107     C        0.93170    0.96340    0.48740    1.000
    H71      H        0.92070    0.96800    0.51390    1.000
    C108     C        0.96380    0.90630    0.48580    1.000
    H72      H        0.97430    0.87240    0.51170    1.000
    Zn12     Zn       0.36410    0.40910    0.95980    1.000
    I23      I        0.37960    0.26150    0.92620    1.000
    I24      I        0.34130    0.43770    0.03190    1.000
    Zn13     Zn       0.58216    0.87510    0.59429    1.000
    I25      I        0.62053    0.76354    0.55685    1.000
    I26      I        0.52607    0.84123    0.63594    1.000
    Zn14     Zn       0.86960    0.90210    0.94370    1.000
    I27      I        0.88920    0.76246    0.90604    1.000
    I28      I        0.84376    0.90490    0.01679    1.000
    Zn15     Zn       0.67667    0.64270    0.77457    1.000
    I29      I        0.74065    0.72714    0.80374    1.000
    I30      I        0.63504    0.66952    0.69717    1.000
    N37      N        0.62178    0.94900    0.64033    1.000
    C109     C        0.61430    0.03440    0.64720    1.000
    H73      H        0.59320    0.06280    0.62730    1.000
    C110     C        0.63550    0.08340    0.68170    1.000
    H74      H        0.62880    0.14380    0.68550    1.000
    C111     C        0.66650    0.04450    0.71060    1.000
    C112     C        0.67530    0.95640    0.70260    1.000
    H75      H        0.69680    0.92700    0.72140    1.000
    C113     C        0.65240    0.91230    0.66710    1.000
    H76      H        0.65900    0.85240    0.66170    1.000
    C114     C        0.68950    0.09440    0.74790    1.000
    N38      N        0.67937    0.18060    0.75110    1.000
    C115     C        0.70290    0.22540    0.78470    1.000
    N39      N        0.73187    0.19080    0.81460    1.000
    C116     C        0.73800    0.10420    0.80930    1.000
    N40      N        0.71826    0.05330    0.77570    1.000
    C117     C        0.69660    0.32330    0.78410    1.000
    C118     C        0.66740    0.36140    0.75220    1.000
    H77      H        0.65040    0.32530    0.73120    1.000
    C119     C        0.66310    0.45200    0.75110    1.000
    H78      H        0.64280    0.47700    0.72890    1.000
    N41      N        0.68570    0.50710    0.77940    1.000
    C120     C        0.71410    0.46960    0.81030    1.000
    H79      H        0.73090    0.50750    0.83060    1.000
    C121     C        0.72020    0.37930    0.81410    1.000
    H80      H        0.74040    0.35570    0.83690    1.000
    C122     C        0.76860    0.05780    0.84260    1.000
    C123     C        0.78950    0.10200    0.87890    1.000
    H81      H        0.78490    0.16330    0.88360    1.000
    C124     C        0.81730    0.05520    0.90840    1.000
    H82      H        0.83090    0.08500    0.93430    1.000
    N42      N        0.82630    0.96940    0.90260    1.000
    C125     C        0.80550    0.92870    0.86680    1.000
    H83      H        0.81120    0.86800    0.86220    1.000
    C126     C        0.77680    0.96880    0.83660    1.000
    H84      H        0.76250    0.93660    0.81180    1.000
    N43      N        0.56470    0.97650    0.54860    1.000
    C127     C        0.53330    0.02990    0.55080    1.000
    H85      H        0.51530    0.01490    0.57010    1.000
    C128     C        0.52680    0.10740    0.52480    1.000
    H86      H        0.50460    0.14440    0.52650    1.000
    C129     C        0.55200    0.12910    0.49780    1.000
    C130     C        0.58370    0.07290    0.49480    1.000
    H87      H        0.60150    0.08540    0.47490    1.000
    C131     C        0.58870    0.99770    0.52170    1.000
    H88      H        0.61080    0.95990    0.52040    1.000
    C132     C        0.54660    0.21150    0.46960    1.000
    N44      N        0.57120    0.22160    0.44050    1.000
    C133     C        0.56460    0.29510    0.41420    1.000
    N45      N        0.53540    0.35300    0.41640    1.000
    C134     C        0.51370    0.33680    0.44710    1.000
    N46      N        0.51810    0.26670    0.47560    1.000
    C135     C        0.59110    0.30890    0.38170    1.000
    C136     C        0.62730    0.26530    0.38470    1.000
    H89      H        0.63550    0.22420    0.40830    1.000
    C137     C        0.65110    0.28000    0.35490    1.000
    H90      H        0.67530    0.24760    0.35750    1.000
    N47      N        0.64160    0.33900    0.32170    1.000
    C138     C        0.60820    0.38390    0.31960    1.000
    H91      H        0.60190    0.42690    0.29650    1.000
    C139     C        0.58170    0.37340    0.34810    1.000
    H92      H        0.55800    0.40820    0.34530    1.000
    C140     C        0.48010    0.39740    0.45050    1.000
    C141     C        0.46290    0.44580    0.41170    1.000
    H93      H        0.47230    0.44050    0.38430    1.000
    C142     C        0.43120    0.50190    0.41640    1.000
    H94      H        0.41980    0.53580    0.39090    1.000
    N48      N        0.41640    0.51200    0.45060    1.000
    C143     C        0.43170    0.46340    0.48740    1.000
    H95      H        0.42070    0.46800    0.51390    1.000
    C144     C        0.46380    0.40630    0.48580    1.000
    H96      H        0.47430    0.37240    0.51170    1.000
    Zn16     Zn       0.86410    0.90910    0.95980    1.000
    I31      I        0.87960    0.76150    0.92620    1.000
    I32      I        0.84130    0.93770    0.03190    1.000
    Zn17     Zn       0.91784    0.62490    0.40571    1.000
    I33      I        0.87947    0.73646    0.44315    1.000
    I34      I        0.97393    0.65877    0.36406    1.000
    Zn18     Zn       0.63040    0.59790    0.05630    1.000
    I35      I        0.61080    0.73754    0.09396    1.000
    I36      I        0.65624    0.59510    0.98321    1.000
    Zn19     Zn       0.82333    0.85730    0.22543    1.000
    I37      I        0.75935    0.77286    0.19626    1.000
    I38      I        0.86496    0.83048    0.30283    1.000
    N49      N        0.87822    0.55100    0.35967    1.000
    C145     C        0.88570    0.46560    0.35280    1.000
    H97      H        0.90680    0.43720    0.37270    1.000
    C146     C        0.86450    0.41660    0.31830    1.000
    H98      H        0.87120    0.35620    0.31450    1.000
    C147     C        0.83350    0.45550    0.28940    1.000
    C148     C        0.82470    0.54360    0.29740    1.000
    H99      H        0.80320    0.57300    0.27860    1.000
    C149     C        0.84760    0.58770    0.33290    1.000
    H100     H        0.84100    0.64760    0.33830    1.000
    C150     C        0.81050    0.40560    0.25210    1.000
    N50      N        0.82063    0.31940    0.24890    1.000
    C151     C        0.79710    0.27460    0.21530    1.000
    N51      N        0.76813    0.30920    0.18540    1.000
    C152     C        0.76200    0.39580    0.19070    1.000
    N52      N        0.78174    0.44670    0.22430    1.000
    C153     C        0.80340    0.17670    0.21590    1.000
    C154     C        0.83260    0.13860    0.24780    1.000
    H101     H        0.84960    0.17470    0.26880    1.000
    C155     C        0.83690    0.04800    0.24890    1.000
    H102     H        0.85720    0.02300    0.27110    1.000
    N53      N        0.81430    0.99290    0.22060    1.000
    C156     C        0.78590    0.03040    0.18970    1.000
    H103     H        0.76910    0.99250    0.16940    1.000
    C157     C        0.77980    0.12070    0.18590    1.000
    H104     H        0.75960    0.14430    0.16310    1.000
    C158     C        0.73140    0.44220    0.15740    1.000
    C159     C        0.71050    0.39800    0.12110    1.000
    H105     H        0.71510    0.33670    0.11640    1.000
    C160     C        0.68270    0.44480    0.09160    1.000
    H106     H        0.66910    0.41500    0.06570    1.000
    N54      N        0.67370    0.53060    0.09740    1.000
    C161     C        0.69450    0.57130    0.13320    1.000
    H107     H        0.68880    0.63200    0.13780    1.000
    C162     C        0.72320    0.53120    0.16340    1.000
    H108     H        0.73750    0.56340    0.18820    1.000
    N55      N        0.93530    0.52350    0.45140    1.000
    C163     C        0.96670    0.47010    0.44920    1.000
    H109     H        0.98470    0.48510    0.42990    1.000
    C164     C        0.97320    0.39260    0.47520    1.000
    H110     H        0.99540    0.35560    0.47350    1.000
    C165     C        0.94800    0.37090    0.50220    1.000
    C166     C        0.91630    0.42710    0.50520    1.000
    H111     H        0.89850    0.41460    0.52510    1.000
    C167     C        0.91130    0.50230    0.47830    1.000
    H112     H        0.88920    0.54010    0.47960    1.000
    C168     C        0.95340    0.28850    0.53040    1.000
    N56      N        0.92880    0.27840    0.55950    1.000
    C169     C        0.93540    0.20490    0.58580    1.000
    N57      N        0.96460    0.14700    0.58360    1.000
    C170     C        0.98630    0.16320    0.55290    1.000
    N58      N        0.98190    0.23330    0.52440    1.000
    C171     C        0.90890    0.19110    0.61830    1.000
    C172     C        0.87270    0.23470    0.61530    1.000
    H113     H        0.86450    0.27580    0.59170    1.000
    C173     C        0.84890    0.22000    0.64510    1.000
    H114     H        0.82470    0.25240    0.64250    1.000
    N59      N        0.85840    0.16100    0.67830    1.000
    C174     C        0.89180    0.11610    0.68040    1.000
    H115     H        0.89810    0.07310    0.70350    1.000
    C175     C        0.91830    0.12660    0.65190    1.000
    H116     H        0.94200    0.09180    0.65470    1.000
    C176     C        0.01990    0.10260    0.54950    1.000
    C177     C        0.03710    0.05420    0.58830    1.000
    H117     H        0.02770    0.05950    0.61570    1.000
    C178     C        0.06880    0.99810    0.58360    1.000
    H118     H        0.08020    0.96420    0.60910    1.000
    N60      N        0.08360    0.98800    0.54940    1.000
    C179     C        0.06830    0.03660    0.51260    1.000
    H119     H        0.07930    0.03200    0.48610    1.000
    C180     C        0.03620    0.09370    0.51420    1.000
    H120     H        0.02570    0.12760    0.48830    1.000
    Zn20     Zn       0.63590    0.59090    0.04020    1.000
    I39      I        0.62040    0.73850    0.07380    1.000
    I40      I        0.65870    0.56230    0.96810    1.000
    Zn21     Zn       0.41784    0.12490    0.40571    1.000
    I41      I        0.37947    0.23646    0.44315    1.000
    I42      I        0.47393    0.15877    0.36406    1.000
    Zn22     Zn       0.13040    0.09790    0.05630    1.000
    I43      I        0.11080    0.23754    0.09396    1.000
    I44      I        0.15624    0.09510    0.98321    1.000
    Zn23     Zn       0.32333    0.35730    0.22543    1.000
    I45      I        0.25935    0.27286    0.19626    1.000
    I46      I        0.36496    0.33048    0.30283    1.000
    N61      N        0.37822    0.05100    0.35967    1.000
    C181     C        0.38570    0.96560    0.35280    1.000
    H121     H        0.40680    0.93720    0.37270    1.000
    C182     C        0.36450    0.91660    0.31830    1.000
    H122     H        0.37120    0.85620    0.31450    1.000
    C183     C        0.33350    0.95550    0.28940    1.000
    C184     C        0.32470    0.04360    0.29740    1.000
    H123     H        0.30320    0.07300    0.27860    1.000
    C185     C        0.34760    0.08770    0.33290    1.000
    H124     H        0.34100    0.14760    0.33830    1.000
    C186     C        0.31050    0.90560    0.25210    1.000
    N62      N        0.32063    0.81940    0.24890    1.000
    C187     C        0.29710    0.77460    0.21530    1.000
    N63      N        0.26813    0.80920    0.18540    1.000
    C188     C        0.26200    0.89580    0.19070    1.000
    N64      N        0.28174    0.94670    0.22430    1.000
    C189     C        0.30340    0.67670    0.21590    1.000
    C190     C        0.33260    0.63860    0.24780    1.000
    H125     H        0.34960    0.67470    0.26880    1.000
    C191     C        0.33690    0.54800    0.24890    1.000
    H126     H        0.35720    0.52300    0.27110    1.000
    N65      N        0.31430    0.49290    0.22060    1.000
    C192     C        0.28590    0.53040    0.18970    1.000
    H127     H        0.26910    0.49250    0.16940    1.000
    C193     C        0.27980    0.62070    0.18590    1.000
    H128     H        0.25960    0.64430    0.16310    1.000
    C194     C        0.23140    0.94220    0.15740    1.000
    C195     C        0.21050    0.89800    0.12110    1.000
    H129     H        0.21510    0.83670    0.11640    1.000
    C196     C        0.18270    0.94480    0.09160    1.000
    H130     H        0.16910    0.91500    0.06570    1.000
    N66      N        0.17370    0.03060    0.09740    1.000
    C197     C        0.19450    0.07130    0.13320    1.000
    H131     H        0.18880    0.13200    0.13780    1.000
    C198     C        0.22320    0.03120    0.16340    1.000
    H132     H        0.23750    0.06340    0.18820    1.000
    N67      N        0.43530    0.02350    0.45140    1.000
    C199     C        0.46670    0.97010    0.44920    1.000
    H133     H        0.48470    0.98510    0.42990    1.000
    C200     C        0.47320    0.89260    0.47520    1.000
    H134     H        0.49540    0.85560    0.47350    1.000
    C201     C        0.44800    0.87090    0.50220    1.000
    C202     C        0.41630    0.92710    0.50520    1.000
    H135     H        0.39850    0.91460    0.52510    1.000
    C203     C        0.41130    0.00230    0.47830    1.000
    H136     H        0.38920    0.04010    0.47960    1.000
    C204     C        0.45340    0.78850    0.53040    1.000
    N68      N        0.42880    0.77840    0.55950    1.000
    C205     C        0.43540    0.70490    0.58580    1.000
    N69      N        0.46460    0.64700    0.58360    1.000
    C206     C        0.48630    0.66320    0.55290    1.000
    N70      N        0.48190    0.73330    0.52440    1.000
    C207     C        0.40890    0.69110    0.61830    1.000
    C208     C        0.37270    0.73470    0.61530    1.000
    H137     H        0.36450    0.77580    0.59170    1.000
    C209     C        0.34890    0.72000    0.64510    1.000
    H138     H        0.32470    0.75240    0.64250    1.000
    N71      N        0.35840    0.66100    0.67830    1.000
    C210     C        0.39180    0.61610    0.68040    1.000
    H139     H        0.39810    0.57310    0.70350    1.000
    C211     C        0.41830    0.62660    0.65190    1.000
    H140     H        0.44200    0.59180    0.65470    1.000
    C212     C        0.51990    0.60260    0.54950    1.000
    C213     C        0.53710    0.55420    0.58830    1.000
    H141     H        0.52770    0.55950    0.61570    1.000
    C214     C        0.56880    0.49810    0.58360    1.000
    H142     H        0.58020    0.46420    0.60910    1.000
    N72      N        0.58360    0.48800    0.54940    1.000
    C215     C        0.56830    0.53660    0.51260    1.000
    H143     H        0.57930    0.53200    0.48610    1.000
    C216     C        0.53620    0.59370    0.51420    1.000
    H144     H        0.52570    0.62760    0.48830    1.000
    Zn24     Zn       0.13590    0.09090    0.04020    1.000
    I47      I        0.12040    0.23850    0.07380    1.000
    I48      I        0.15870    0.06230    0.96810    1.000
    Zn25     Zn       0.91784    0.37510    0.90571    1.000
    I49      I        0.87947    0.26354    0.94315    1.000
    I50      I        0.97393    0.34123    0.86406    1.000
    Zn26     Zn       0.63040    0.40210    0.55630    1.000
    I51      I        0.61080    0.26246    0.59396    1.000
    I52      I        0.65624    0.40490    0.48321    1.000
    Zn27     Zn       0.82333    0.14270    0.72543    1.000
    I53      I        0.75935    0.22714    0.69626    1.000
    I54      I        0.86496    0.16952    0.80283    1.000
    N73      N        0.87822    0.44900    0.85967    1.000
    C217     C        0.88570    0.53440    0.85280    1.000
    H145     H        0.90680    0.56280    0.87270    1.000
    C218     C        0.86450    0.58340    0.81830    1.000
    H146     H        0.87120    0.64380    0.81450    1.000
    C219     C        0.83350    0.54450    0.78940    1.000
    C220     C        0.82470    0.45640    0.79740    1.000
    H147     H        0.80320    0.42700    0.77860    1.000
    C221     C        0.84760    0.41230    0.83290    1.000
    H148     H        0.84100    0.35240    0.83830    1.000
    C222     C        0.81050    0.59440    0.75210    1.000
    N74      N        0.82063    0.68060    0.74890    1.000
    C223     C        0.79710    0.72540    0.71530    1.000
    N75      N        0.76813    0.69080    0.68540    1.000
    C224     C        0.76200    0.60420    0.69070    1.000
    N76      N        0.78174    0.55330    0.72430    1.000
    C225     C        0.80340    0.82330    0.71590    1.000
    C226     C        0.83260    0.86140    0.74780    1.000
    H149     H        0.84960    0.82530    0.76880    1.000
    C227     C        0.83690    0.95200    0.74890    1.000
    H150     H        0.85720    0.97700    0.77110    1.000
    N77      N        0.81430    0.00710    0.72060    1.000
    C228     C        0.78590    0.96960    0.68970    1.000
    H151     H        0.76910    0.00750    0.66940    1.000
    C229     C        0.77980    0.87930    0.68590    1.000
    H152     H        0.75960    0.85570    0.66310    1.000
    C230     C        0.73140    0.55780    0.65740    1.000
    C231     C        0.71050    0.60200    0.62110    1.000
    H153     H        0.71510    0.66330    0.61640    1.000
    C232     C        0.68270    0.55520    0.59160    1.000
    H154     H        0.66910    0.58500    0.56570    1.000
    N78      N        0.67370    0.46940    0.59740    1.000
    C233     C        0.69450    0.42870    0.63320    1.000
    H155     H        0.68880    0.36800    0.63780    1.000
    C234     C        0.72320    0.46880    0.66340    1.000
    H156     H        0.73750    0.43660    0.68820    1.000
    N79      N        0.93530    0.47650    0.95140    1.000
    C235     C        0.96670    0.52990    0.94920    1.000
    H157     H        0.98470    0.51490    0.92990    1.000
    C236     C        0.97320    0.60740    0.97520    1.000
    H158     H        0.99540    0.64440    0.97350    1.000
    C237     C        0.94800    0.62910    0.00220    1.000
    C238     C        0.91630    0.57290    0.00520    1.000
    H159     H        0.89850    0.58540    0.02510    1.000
    C239     C        0.91130    0.49770    0.97830    1.000
    H160     H        0.88920    0.45990    0.97960    1.000
    C240     C        0.95340    0.71150    0.03040    1.000
    N80      N        0.92880    0.72160    0.05950    1.000
    C241     C        0.93540    0.79510    0.08580    1.000
    N81      N        0.96460    0.85300    0.08360    1.000
    C242     C        0.98630    0.83680    0.05290    1.000
    N82      N        0.98190    0.76670    0.02440    1.000
    C243     C        0.90890    0.80890    0.11830    1.000
    C244     C        0.87270    0.76530    0.11530    1.000
    H161     H        0.86450    0.72420    0.09170    1.000
    C245     C        0.84890    0.78000    0.14510    1.000
    H162     H        0.82470    0.74760    0.14250    1.000
    N83      N        0.85840    0.83900    0.17830    1.000
    C246     C        0.89180    0.88390    0.18040    1.000
    H163     H        0.89810    0.92690    0.20350    1.000
    C247     C        0.91830    0.87340    0.15190    1.000
    H164     H        0.94200    0.90820    0.15470    1.000
    C248     C        0.01990    0.89740    0.04950    1.000
    C249     C        0.03710    0.94580    0.08830    1.000
    H165     H        0.02770    0.94050    0.11570    1.000
    C250     C        0.06880    0.00190    0.08360    1.000
    H166     H        0.08020    0.03580    0.10910    1.000
    N84      N        0.08360    0.01200    0.04940    1.000
    C251     C        0.06830    0.96340    0.01260    1.000
    H167     H        0.07930    0.96800    0.98610    1.000
    C252     C        0.03620    0.90630    0.01420    1.000
    H168     H        0.02570    0.87240    0.98830    1.000
    Zn28     Zn       0.63590    0.40910    0.54020    1.000
    I55      I        0.62040    0.26150    0.57380    1.000
    I56      I        0.65870    0.43770    0.46810    1.000
    Zn29     Zn       0.41784    0.87510    0.90571    1.000
    I57      I        0.37947    0.76354    0.94315    1.000
    I58      I        0.47393    0.84123    0.86406    1.000
    Zn30     Zn       0.13040    0.90210    0.55630    1.000
    I59      I        0.11080    0.76246    0.59396    1.000
    I60      I        0.15624    0.90490    0.48321    1.000
    Zn31     Zn       0.32333    0.64270    0.72543    1.000
    I61      I        0.25935    0.72714    0.69626    1.000
    I62      I        0.36496    0.66952    0.80283    1.000
    N85      N        0.37822    0.94900    0.85967    1.000
    C253     C        0.38570    0.03440    0.85280    1.000
    H169     H        0.40680    0.06280    0.87270    1.000
    C254     C        0.36450    0.08340    0.81830    1.000
    H170     H        0.37120    0.14380    0.81450    1.000
    C255     C        0.33350    0.04450    0.78940    1.000
    C256     C        0.32470    0.95640    0.79740    1.000
    H171     H        0.30320    0.92700    0.77860    1.000
    C257     C        0.34760    0.91230    0.83290    1.000
    H172     H        0.34100    0.85240    0.83830    1.000
    C258     C        0.31050    0.09440    0.75210    1.000
    N86      N        0.32063    0.18060    0.74890    1.000
    C259     C        0.29710    0.22540    0.71530    1.000
    N87      N        0.26813    0.19080    0.68540    1.000
    C260     C        0.26200    0.10420    0.69070    1.000
    N88      N        0.28174    0.05330    0.72430    1.000
    C261     C        0.30340    0.32330    0.71590    1.000
    C262     C        0.33260    0.36140    0.74780    1.000
    H173     H        0.34960    0.32530    0.76880    1.000
    C263     C        0.33690    0.45200    0.74890    1.000
    H174     H        0.35720    0.47700    0.77110    1.000
    N89      N        0.31430    0.50710    0.72060    1.000
    C264     C        0.28590    0.46960    0.68970    1.000
    H175     H        0.26910    0.50750    0.66940    1.000
    C265     C        0.27980    0.37930    0.68590    1.000
    H176     H        0.25960    0.35570    0.66310    1.000
    C266     C        0.23140    0.05780    0.65740    1.000
    C267     C        0.21050    0.10200    0.62110    1.000
    H177     H        0.21510    0.16330    0.61640    1.000
    C268     C        0.18270    0.05520    0.59160    1.000
    H178     H        0.16910    0.08500    0.56570    1.000
    N90      N        0.17370    0.96940    0.59740    1.000
    C269     C        0.19450    0.92870    0.63320    1.000
    H179     H        0.18880    0.86800    0.63780    1.000
    C270     C        0.22320    0.96880    0.66340    1.000
    H180     H        0.23750    0.93660    0.68820    1.000
    N91      N        0.43530    0.97650    0.95140    1.000
    C271     C        0.46670    0.02990    0.94920    1.000
    H181     H        0.48470    0.01490    0.92990    1.000
    C272     C        0.47320    0.10740    0.97520    1.000
    H182     H        0.49540    0.14440    0.97350    1.000
    C273     C        0.44800    0.12910    0.00220    1.000
    C274     C        0.41630    0.07290    0.00520    1.000
    H183     H        0.39850    0.08540    0.02510    1.000
    C275     C        0.41130    0.99770    0.97830    1.000
    H184     H        0.38920    0.95990    0.97960    1.000
    C276     C        0.45340    0.21150    0.03040    1.000
    N92      N        0.42880    0.22160    0.05950    1.000
    C277     C        0.43540    0.29510    0.08580    1.000
    N93      N        0.46460    0.35300    0.08360    1.000
    C278     C        0.48630    0.33680    0.05290    1.000
    N94      N        0.48190    0.26670    0.02440    1.000
    C279     C        0.40890    0.30890    0.11830    1.000
    C280     C        0.37270    0.26530    0.11530    1.000
    H185     H        0.36450    0.22420    0.09170    1.000
    C281     C        0.34890    0.28000    0.14510    1.000
    H186     H        0.32470    0.24760    0.14250    1.000
    N95      N        0.35840    0.33900    0.17830    1.000
    C282     C        0.39180    0.38390    0.18040    1.000
    H187     H        0.39810    0.42690    0.20350    1.000
    C283     C        0.41830    0.37340    0.15190    1.000
    H188     H        0.44200    0.40820    0.15470    1.000
    C284     C        0.51990    0.39740    0.04950    1.000
    C285     C        0.53710    0.44580    0.08830    1.000
    H189     H        0.52770    0.44050    0.11570    1.000
    C286     C        0.56880    0.50190    0.08360    1.000
    H190     H        0.58020    0.53580    0.10910    1.000
    N96      N        0.58360    0.51200    0.04940    1.000
    C287     C        0.56830    0.46340    0.01260    1.000
    H191     H        0.57930    0.46800    0.98610    1.000
    C288     C        0.53620    0.40630    0.01420    1.000
    H192     H        0.52570    0.37240    0.98830    1.000
    Zn32     Zn       0.13590    0.90910    0.54020    1.000
    I63      I        0.12040    0.76150    0.57380    1.000
    I64      I        0.15870    0.93770    0.46810    1.000
