# CIF file generated by openbabel 3.1.0, see https://openbabel.org
data_I
_chemical_name_common 'image0'
_cell_length_a 25.4936
_cell_length_b 11.6771
_cell_length_c 13.4533
_cell_angle_alpha 90
_cell_angle_beta 93.638
_cell_angle_gamma 90
_space_group_name_H-M_alt 'P 1'
_space_group_name_Hall 'P 1'
loop_
    _symmetry_equiv_pos_as_xyz
    x,y,z
loop_
    _atom_site_label
    _atom_site_type_symbol
    _atom_site_fract_x
    _atom_site_fract_y
    _atom_site_fract_z
    _atom_site_occupancy
    U1       U        0.30714    0.05074    0.05497    1.000
    P1       P        0.33630    0.09996    0.32221    1.000
    P2       P        0.24016    0.28532    0.16068    1.000
    P3       P        0.44522    0.96979    0.12008    1.000
    O1       O        0.34268    0.02830    0.41450    1.000
    O2       O        0.31649    0.03050    0.23300    1.000
    O3       O        0.39009    0.16010    0.30290    1.000
    H1       H        0.40650    0.12040    0.26530    1.000
    O4       O        0.18739    0.29980    0.21570    1.000
    H2       H        0.18420    0.36680    0.23260    1.000
    O5       O        0.24478    0.37770    0.08260    1.000
    O6       O        0.24051    0.16350    0.12400    1.000
    O7       O        0.47293    0.86350    0.16590    1.000
    O8       O        0.38694    0.95190    0.10680    1.000
    O9       O        0.45898    0.07440    0.18800    1.000
    H3       H        0.48590    0.06090    0.22260    1.000
    C1       C        0.29420    0.22010    0.34100    1.000
    H4       H        0.25900    0.19200    0.34940    1.000
    H5       H        0.30630    0.25830    0.40230    1.000
    C2       C        0.29180    0.30880    0.25560    1.000
    H6       H        0.32510    0.30830    0.22480    1.000
    H7       H        0.28730    0.38430    0.28390    1.000
    C3       C        0.46990    0.99610    0.99910    1.000
    H8       H        0.45810    0.93490    0.95430    1.000
    H9       H        0.45500    0.06710    0.97280    1.000
    U2       U        0.80714    0.55074    0.05497    1.000
    P4       P        0.83630    0.59996    0.32221    1.000
    P5       P        0.74016    0.78532    0.16068    1.000
    P6       P        0.94522    0.46979    0.12008    1.000
    O10      O        0.84268    0.52830    0.41450    1.000
    O11      O        0.81649    0.53050    0.23300    1.000
    O12      O        0.89009    0.66010    0.30290    1.000
    H10      H        0.90650    0.62040    0.26530    1.000
    O13      O        0.68739    0.79980    0.21570    1.000
    H11      H        0.68420    0.86680    0.23260    1.000
    O14      O        0.74478    0.87770    0.08260    1.000
    O15      O        0.74051    0.66350    0.12400    1.000
    O16      O        0.97293    0.36350    0.16590    1.000
    O17      O        0.88694    0.45190    0.10680    1.000
    O18      O        0.95898    0.57440    0.18800    1.000
    H12      H        0.98590    0.56090    0.22260    1.000
    C4       C        0.79420    0.72010    0.34100    1.000
    H13      H        0.75900    0.69200    0.34940    1.000
    H14      H        0.80630    0.75830    0.40230    1.000
    C5       C        0.79180    0.80880    0.25560    1.000
    H15      H        0.82510    0.80830    0.22480    1.000
    H16      H        0.78730    0.88430    0.28390    1.000
    C6       C        0.96990    0.49610    0.99910    1.000
    H17      H        0.95810    0.43490    0.95430    1.000
    H18      H        0.95500    0.56710    0.97280    1.000
    U3       U        0.69286    0.05074    0.44503    1.000
    P7       P        0.66370    0.09996    0.17779    1.000
    P8       P        0.75984    0.28532    0.33932    1.000
    P9       P        0.55478    0.96979    0.37992    1.000
    O19      O        0.65732    0.02830    0.08550    1.000
    O20      O        0.68351    0.03050    0.26700    1.000
    O21      O        0.60991    0.16010    0.19710    1.000
    H19      H        0.59350    0.12040    0.23470    1.000
    O22      O        0.81261    0.29980    0.28430    1.000
    H20      H        0.81580    0.36680    0.26740    1.000
    O23      O        0.75522    0.37770    0.41740    1.000
    O24      O        0.75949    0.16350    0.37600    1.000
    O25      O        0.52707    0.86350    0.33410    1.000
    O26      O        0.61306    0.95190    0.39320    1.000
    O27      O        0.54102    0.07440    0.31200    1.000
    H21      H        0.51410    0.06090    0.27740    1.000
    C7       C        0.70580    0.22010    0.15900    1.000
    H22      H        0.74100    0.19200    0.15060    1.000
    H23      H        0.69370    0.25830    0.09770    1.000
    C8       C        0.70820    0.30880    0.24440    1.000
    H24      H        0.67490    0.30830    0.27520    1.000
    H25      H        0.71270    0.38430    0.21610    1.000
    C9       C        0.53010    0.99610    0.50090    1.000
    H26      H        0.54190    0.93490    0.54570    1.000
    H27      H        0.54500    0.06710    0.52720    1.000
    U4       U        0.19286    0.55074    0.44503    1.000
    P10      P        0.16370    0.59996    0.17779    1.000
    P11      P        0.25984    0.78532    0.33932    1.000
    P12      P        0.05478    0.46979    0.37992    1.000
    O28      O        0.15732    0.52830    0.08550    1.000
    O29      O        0.18351    0.53050    0.26700    1.000
    O30      O        0.10991    0.66010    0.19710    1.000
    H28      H        0.09350    0.62040    0.23470    1.000
    O31      O        0.31261    0.79980    0.28430    1.000
    H29      H        0.31580    0.86680    0.26740    1.000
    O32      O        0.25522    0.87770    0.41740    1.000
    O33      O        0.25949    0.66350    0.37600    1.000
    O34      O        0.02707    0.36350    0.33410    1.000
    O35      O        0.11306    0.45190    0.39320    1.000
    O36      O        0.04102    0.57440    0.31200    1.000
    H30      H        0.01410    0.56090    0.27740    1.000
    C10      C        0.20580    0.72010    0.15900    1.000
    H31      H        0.24100    0.69200    0.15060    1.000
    H32      H        0.19370    0.75830    0.09770    1.000
    C11      C        0.20820    0.80880    0.24440    1.000
    H33      H        0.17490    0.80830    0.27520    1.000
    H34      H        0.21270    0.88430    0.21610    1.000
    C12      C        0.03010    0.49610    0.50090    1.000
    H35      H        0.04190    0.43490    0.54570    1.000
    H36      H        0.04500    0.56710    0.52720    1.000
    U5       U        0.69286    0.94926    0.94503    1.000
    P13      P        0.66370    0.90004    0.67779    1.000
    P14      P        0.75984    0.71468    0.83932    1.000
    P15      P        0.55478    0.03021    0.87992    1.000
    O37      O        0.65732    0.97170    0.58550    1.000
    O38      O        0.68351    0.96950    0.76700    1.000
    O39      O        0.60991    0.83990    0.69710    1.000
    H37      H        0.59350    0.87960    0.73470    1.000
    O40      O        0.81261    0.70020    0.78430    1.000
    H38      H        0.81580    0.63320    0.76740    1.000
    O41      O        0.75522    0.62230    0.91740    1.000
    O42      O        0.75949    0.83650    0.87600    1.000
    O43      O        0.52707    0.13650    0.83410    1.000
    O44      O        0.61306    0.04810    0.89320    1.000
    O45      O        0.54102    0.92560    0.81200    1.000
    H39      H        0.51410    0.93910    0.77740    1.000
    C13      C        0.70580    0.77990    0.65900    1.000
    H40      H        0.74100    0.80800    0.65060    1.000
    H41      H        0.69370    0.74170    0.59770    1.000
    C14      C        0.70820    0.69120    0.74440    1.000
    H42      H        0.67490    0.69170    0.77520    1.000
    H43      H        0.71270    0.61570    0.71610    1.000
    C15      C        0.53010    0.00390    0.00090    1.000
    H44      H        0.54190    0.06510    0.04570    1.000
    H45      H        0.54500    0.93290    0.02720    1.000
    U6       U        0.19286    0.44926    0.94503    1.000
    P16      P        0.16370    0.40004    0.67779    1.000
    P17      P        0.25984    0.21468    0.83932    1.000
    P18      P        0.05478    0.53021    0.87992    1.000
    O46      O        0.15732    0.47170    0.58550    1.000
    O47      O        0.18351    0.46950    0.76700    1.000
    O48      O        0.10991    0.33990    0.69710    1.000
    H46      H        0.09350    0.37960    0.73470    1.000
    O49      O        0.31261    0.20020    0.78430    1.000
    H47      H        0.31580    0.13320    0.76740    1.000
    O50      O        0.25522    0.12230    0.91740    1.000
    O51      O        0.25949    0.33650    0.87600    1.000
    O52      O        0.02707    0.63650    0.83410    1.000
    O53      O        0.11306    0.54810    0.89320    1.000
    O54      O        0.04102    0.42560    0.81200    1.000
    H48      H        0.01410    0.43910    0.77740    1.000
    C16      C        0.20580    0.27990    0.65900    1.000
    H49      H        0.24100    0.30800    0.65060    1.000
    H50      H        0.19370    0.24170    0.59770    1.000
    C17      C        0.20820    0.19120    0.74440    1.000
    H51      H        0.17490    0.19170    0.77520    1.000
    H52      H        0.21270    0.11570    0.71610    1.000
    C18      C        0.03010    0.50390    0.00090    1.000
    H53      H        0.04190    0.56510    0.04570    1.000
    H54      H        0.04500    0.43290    0.02720    1.000
    U7       U        0.30714    0.94926    0.55497    1.000
    P19      P        0.33630    0.90004    0.82221    1.000
    P20      P        0.24016    0.71468    0.66068    1.000
    P21      P        0.44522    0.03021    0.62008    1.000
    O55      O        0.34268    0.97170    0.91450    1.000
    O56      O        0.31649    0.96950    0.73300    1.000
    O57      O        0.39009    0.83990    0.80290    1.000
    H55      H        0.40650    0.87960    0.76530    1.000
    O58      O        0.18739    0.70020    0.71570    1.000
    H56      H        0.18420    0.63320    0.73260    1.000
    O59      O        0.24478    0.62230    0.58260    1.000
    O60      O        0.24051    0.83650    0.62400    1.000
    O61      O        0.47293    0.13650    0.66590    1.000
    O62      O        0.38694    0.04810    0.60680    1.000
    O63      O        0.45898    0.92560    0.68800    1.000
    H57      H        0.48590    0.93910    0.72260    1.000
    C19      C        0.29420    0.77990    0.84100    1.000
    H58      H        0.25900    0.80800    0.84940    1.000
    H59      H        0.30630    0.74170    0.90230    1.000
    C20      C        0.29180    0.69120    0.75560    1.000
    H60      H        0.32510    0.69170    0.72480    1.000
    H61      H        0.28730    0.61570    0.78390    1.000
    C21      C        0.46990    0.00390    0.49910    1.000
    H62      H        0.45810    0.06510    0.45430    1.000
    H63      H        0.45500    0.93290    0.47280    1.000
    U8       U        0.80714    0.44926    0.55497    1.000
    P22      P        0.83630    0.40004    0.82221    1.000
    P23      P        0.74016    0.21468    0.66068    1.000
    P24      P        0.94522    0.53021    0.62008    1.000
    O64      O        0.84268    0.47170    0.91450    1.000
    O65      O        0.81649    0.46950    0.73300    1.000
    O66      O        0.89009    0.33990    0.80290    1.000
    H64      H        0.90650    0.37960    0.76530    1.000
    O67      O        0.68739    0.20020    0.71570    1.000
    H65      H        0.68420    0.13320    0.73260    1.000
    O68      O        0.74478    0.12230    0.58260    1.000
    O69      O        0.74051    0.33650    0.62400    1.000
    O70      O        0.97293    0.63650    0.66590    1.000
    O71      O        0.88694    0.54810    0.60680    1.000
    O72      O        0.95898    0.42560    0.68800    1.000
    H66      H        0.98590    0.43910    0.72260    1.000
    C22      C        0.79420    0.27990    0.84100    1.000
    H67      H        0.75900    0.30800    0.84940    1.000
    H68      H        0.80630    0.24170    0.90230    1.000
    C23      C        0.79180    0.19120    0.75560    1.000
    H69      H        0.82510    0.19170    0.72480    1.000
    H70      H        0.78730    0.11570    0.78390    1.000
    C24      C        0.96990    0.50390    0.49910    1.000
    H71      H        0.95810    0.56510    0.45430    1.000
    H72      H        0.95500    0.43290    0.47280    1.000
