# CIF file generated by openbabel 3.1.0, see https://openbabel.org
data_I
_chemical_name_common 'MIRLUU_clean'
_cell_length_a 7.2075
_cell_length_b 10.7562
_cell_length_c 17.218
_cell_angle_alpha 97.072
_cell_angle_beta 90
_cell_angle_gamma 90
_space_group_name_H-M_alt 'P 1'
_space_group_name_Hall 'P 1'
loop_
    _symmetry_equiv_pos_as_xyz
    x,y,z
loop_
    _atom_site_label
    _atom_site_type_symbol
    _atom_site_fract_x
    _atom_site_fract_y
    _atom_site_fract_z
    _atom_site_occupancy
    Eu1      Eu       0.48036    0.32562    0.75305    1.000
    Eu2      Eu       0.98036    0.17438    0.74695    1.000
    Eu3      Eu       0.51964    0.67438    0.24695    1.000
    Eu4      Eu       0.01964    0.82562    0.25305    1.000
    H1       H        0.54240    0.67160    0.55960    1.000
    H2       H        0.68390    0.49250    0.01950    1.000
    H3       H        0.14770    0.66520    0.45050    1.000
    H4       H        0.04240    0.82840    0.94040    1.000
    H5       H        0.18390    0.00750    0.48050    1.000
    H6       H        0.64770    0.83480    0.04950    1.000
    H7       H        0.45760    0.32840    0.44040    1.000
    H8       H        0.31610    0.50750    0.98050    1.000
    H9       H        0.85230    0.33480    0.54950    1.000
    H10      H        0.95760    0.17160    0.05960    1.000
    H11      H        0.81610    0.99250    0.51950    1.000
    H12      H        0.35230    0.16520    0.95050    1.000
    C1       C        0.17180    0.41600    0.85190    1.000
    C2       C        0.74950    0.40540    0.87460    1.000
    C3       C        0.88250    0.45190    0.93810    1.000
    C4       C        0.07460    0.45760    0.92710    1.000
    C5       C        0.81140    0.49520    0.01140    1.000
    C6       C        0.14850    0.39210    0.63380    1.000
    C7       C        0.07090    0.45270    0.56670    1.000
    C8       C        0.31820    0.62250    0.57810    1.000
    C9       C        0.15790    0.55260    0.53670    1.000
    C10      C        0.08780    0.59920    0.47020    1.000
    C11      C        0.67180    0.08400    0.64810    1.000
    C12      C        0.24950    0.09460    0.62540    1.000
    C13      C        0.38250    0.04810    0.56190    1.000
    C14      C        0.57460    0.04240    0.57290    1.000
    C15      C        0.31140    0.00480    0.48860    1.000
    C16      C        0.64850    0.10790    0.86620    1.000
    C17      C        0.57090    0.04730    0.93330    1.000
    C18      C        0.81820    0.87750    0.92190    1.000
    C19      C        0.65790    0.94740    0.96330    1.000
    C20      C        0.58780    0.90080    0.02980    1.000
    C21      C        0.82820    0.58400    0.14810    1.000
    C22      C        0.25050    0.59460    0.12540    1.000
    C23      C        0.11750    0.54810    0.06190    1.000
    C24      C        0.92540    0.54240    0.07290    1.000
    C25      C        0.18860    0.50480    0.98860    1.000
    C26      C        0.85150    0.60790    0.36620    1.000
    C27      C        0.92910    0.54730    0.43330    1.000
    C28      C        0.68180    0.37750    0.42190    1.000
    C29      C        0.84210    0.44740    0.46330    1.000
    C30      C        0.91220    0.40080    0.52980    1.000
    C31      C        0.32820    0.91600    0.35190    1.000
    C32      C        0.75050    0.90540    0.37460    1.000
    C33      C        0.61750    0.95190    0.43810    1.000
    C34      C        0.42540    0.95760    0.42710    1.000
    C35      C        0.68860    0.99520    0.51140    1.000
    C36      C        0.35150    0.89210    0.13380    1.000
    C37      C        0.42910    0.95270    0.06670    1.000
    C38      C        0.18180    0.12250    0.07810    1.000
    C39      C        0.34210    0.05260    0.03670    1.000
    C40      C        0.41220    0.09920    0.97020    1.000
    O1       O        0.58030    0.41780    0.88650    1.000
    O2       O        0.31550    0.65360    0.64920    1.000
    O3       O        0.45160    0.64830    0.53300    1.000
    O4       O        0.19240    0.29740    0.83020    1.000
    O5       O        0.81120    0.35620    0.80800    1.000
    O6       O        0.25190    0.49370    0.81550    1.000
    O7       O        0.32160    0.38850    0.64240    1.000
    O8       O        0.03230    0.34440    0.67580    1.000
    O9       O        0.08030    0.08220    0.61350    1.000
    O10      O        0.81550    0.84640    0.85080    1.000
    O11      O        0.95160    0.85170    0.96700    1.000
    O12      O        0.69240    0.20260    0.66980    1.000
    O13      O        0.31120    0.14380    0.69200    1.000
    O14      O        0.75190    0.00630    0.68450    1.000
    O15      O        0.82160    0.11150    0.85760    1.000
    O16      O        0.53230    0.15560    0.82420    1.000
    O17      O        0.41970    0.58220    0.11350    1.000
    O18      O        0.68450    0.34640    0.35080    1.000
    O19      O        0.54840    0.35170    0.46700    1.000
    O20      O        0.80760    0.70260    0.16980    1.000
    O21      O        0.18880    0.64380    0.19200    1.000
    O22      O        0.74810    0.50630    0.18450    1.000
    O23      O        0.67840    0.61150    0.35760    1.000
    O24      O        0.96770    0.65560    0.32420    1.000
    O25      O        0.91970    0.91780    0.38650    1.000
    O26      O        0.18450    0.15360    0.14920    1.000
    O27      O        0.04840    0.14830    0.03300    1.000
    O28      O        0.30760    0.79740    0.33020    1.000
    O29      O        0.68880    0.85620    0.30800    1.000
    O30      O        0.24810    0.99370    0.31550    1.000
    O31      O        0.17840    0.88850    0.14240    1.000
    O32      O        0.46770    0.84440    0.17580    1.000
