# CIF file generated by openbabel 3.1.0, see https://openbabel.org
data_I
_chemical_name_common 'LUFQUZ02_clean'
_cell_length_a 7.2421
_cell_length_b 7.2666
_cell_length_c 7.2696
_cell_angle_alpha 90
_cell_angle_beta 90
_cell_angle_gamma 90
_space_group_name_H-M_alt 'P 1'
_space_group_name_Hall 'P 1'
loop_
    _symmetry_equiv_pos_as_xyz
    x,y,z
loop_
    _atom_site_label
    _atom_site_type_symbol
    _atom_site_fract_x
    _atom_site_fract_y
    _atom_site_fract_z
    _atom_site_occupancy
    Fe1      Fe       0.00000    0.00000    0.00000    1.000
    Ni1      Ni       0.00000    0.50000    0.50000    1.000
    H1       H        0.65940    0.00000    0.73390    1.000
    H2       H        0.65940    0.00000    0.26610    1.000
    H3       H        0.34060    0.00000    0.73390    1.000
    H4       H        0.34060    0.00000    0.26610    1.000
    C1       C        0.00000    0.67570    0.68800    1.000
    C2       C        0.00000    0.32430    0.31200    1.000
    C3       C        0.00000    0.32430    0.68800    1.000
    C4       C        0.00000    0.67570    0.31200    1.000
    C5       C        0.59690    0.00000    0.84560    1.000
    C6       C        0.59690    0.00000    0.15440    1.000
    C7       C        0.40310    0.00000    0.84560    1.000
    C8       C        0.40310    0.00000    0.15440    1.000
    N1       N        0.00000    0.79490    0.79120    1.000
    N2       N        0.00000    0.20510    0.20880    1.000
    N3       N        0.00000    0.20510    0.79120    1.000
    N4       N        0.00000    0.79490    0.20880    1.000
    N5       N        0.69270    0.00000    0.00000    1.000
    N6       N        0.30730    0.00000    0.00000    1.000
