# CIF file generated by openbabel 3.1.0, see https://openbabel.org
data_I
_chemical_name_common 'image0'
_cell_length_a 20.404
_cell_length_b 20.404
_cell_length_c 20.404
_cell_angle_alpha 90
_cell_angle_beta 90
_cell_angle_gamma 90
_space_group_name_H-M_alt 'P 1'
_space_group_name_Hall 'P 1'
loop_
    _symmetry_equiv_pos_as_xyz
    x,y,z
loop_
    _atom_site_label
    _atom_site_type_symbol
    _atom_site_fract_x
    _atom_site_fract_y
    _atom_site_fract_z
    _atom_site_occupancy
    Mo1      Mo       0.10894    0.14913    0.94617    1.000
    Mo2      Mo       0.00699    0.19221    0.00853    1.000
    P1       P        0.26540    0.15230    0.98790    1.000
    Na1      Na       0.14960    0.25760    0.11000    1.000
    O1       O        0.02540    0.10740    0.96880    1.000
    O2       O        0.09730    0.22380    0.00330    1.000
    O3       O        0.14270    0.10080    0.04200    1.000
    O4       O        0.20890    0.17510    0.94630    1.000
    O5       O        0.14280    0.05460    0.92600    1.000
    O6       O        0.26670    0.18670    0.05530    1.000
    O7       O        0.33090    0.17080    0.95150    1.000
    O8       O        0.26760    0.07800    0.99440    1.000
    Mo3      Mo       0.39106    0.35087    0.94617    1.000
    Mo4      Mo       0.49301    0.30779    0.00853    1.000
    P2       P        0.23460    0.34770    0.98790    1.000
    Na2      Na       0.35040    0.24240    0.11000    1.000
    O9       O        0.47460    0.39260    0.96880    1.000
    O10      O        0.40270    0.27620    0.00330    1.000
    O11      O        0.35730    0.39920    0.04200    1.000
    O12      O        0.29110    0.32490    0.94630    1.000
    O13      O        0.35720    0.44540    0.92600    1.000
    O14      O        0.23330    0.31330    0.05530    1.000
    O15      O        0.16910    0.32920    0.95150    1.000
    O16      O        0.23240    0.42200    0.99440    1.000
    Mo5      Mo       0.39106    0.14913    0.55383    1.000
    Mo6      Mo       0.49301    0.19221    0.49147    1.000
    P3       P        0.23460    0.15230    0.51210    1.000
    Na3      Na       0.35040    0.25760    0.39000    1.000
    O17      O        0.47460    0.10740    0.53120    1.000
    O18      O        0.40270    0.22380    0.49670    1.000
    O19      O        0.35730    0.10080    0.45800    1.000
    O20      O        0.29110    0.17510    0.55370    1.000
    O21      O        0.35720    0.05460    0.57400    1.000
    O22      O        0.23330    0.18670    0.44470    1.000
    O23      O        0.16910    0.17080    0.54850    1.000
    O24      O        0.23240    0.07800    0.50560    1.000
    Mo7      Mo       0.10894    0.35087    0.55383    1.000
    Mo8      Mo       0.00699    0.30779    0.49147    1.000
    P4       P        0.26540    0.34770    0.51210    1.000
    Na4      Na       0.14960    0.24240    0.39000    1.000
    O25      O        0.02540    0.39260    0.53120    1.000
    O26      O        0.09730    0.27620    0.49670    1.000
    O27      O        0.14270    0.39920    0.45800    1.000
    O28      O        0.20890    0.32490    0.55370    1.000
    O29      O        0.14280    0.44540    0.57400    1.000
    O30      O        0.26670    0.31330    0.44470    1.000
    O31      O        0.33090    0.32920    0.54850    1.000
    O32      O        0.26760    0.42200    0.50560    1.000
    Mo9      Mo       0.94617    0.10894    0.14913    1.000
    Mo10     Mo       0.00853    0.00699    0.19221    1.000
    P5       P        0.98790    0.26540    0.15230    1.000
    Na5      Na       0.11000    0.14960    0.25760    1.000
    O33      O        0.96880    0.02540    0.10740    1.000
    O34      O        0.00330    0.09730    0.22380    1.000
    O35      O        0.04200    0.14270    0.10080    1.000
    O36      O        0.94630    0.20890    0.17510    1.000
    O37      O        0.92600    0.14280    0.05460    1.000
    O38      O        0.05530    0.26670    0.18670    1.000
    O39      O        0.95150    0.33090    0.17080    1.000
    O40      O        0.99440    0.26760    0.07800    1.000
    Mo11     Mo       0.94617    0.39106    0.35087    1.000
    Mo12     Mo       0.00853    0.49301    0.30779    1.000
    P6       P        0.98790    0.23460    0.34770    1.000
    Na6      Na       0.11000    0.35040    0.24240    1.000
    O41      O        0.96880    0.47460    0.39260    1.000
    O42      O        0.00330    0.40270    0.27620    1.000
    O43      O        0.04200    0.35730    0.39920    1.000
    O44      O        0.94630    0.29110    0.32490    1.000
    O45      O        0.92600    0.35720    0.44540    1.000
    O46      O        0.05530    0.23330    0.31330    1.000
    O47      O        0.95150    0.16910    0.32920    1.000
    O48      O        0.99440    0.23240    0.42200    1.000
    Mo13     Mo       0.55383    0.39106    0.14913    1.000
    Mo14     Mo       0.49147    0.49301    0.19221    1.000
    P7       P        0.51210    0.23460    0.15230    1.000
    Na7      Na       0.39000    0.35040    0.25760    1.000
    O49      O        0.53120    0.47460    0.10740    1.000
    O50      O        0.49670    0.40270    0.22380    1.000
    O51      O        0.45800    0.35730    0.10080    1.000
    O52      O        0.55370    0.29110    0.17510    1.000
    O53      O        0.57400    0.35720    0.05460    1.000
    O54      O        0.44470    0.23330    0.18670    1.000
    O55      O        0.54850    0.16910    0.17080    1.000
    O56      O        0.50560    0.23240    0.07800    1.000
    Mo15     Mo       0.55383    0.10894    0.35087    1.000
    Mo16     Mo       0.49147    0.00699    0.30779    1.000
    P8       P        0.51210    0.26540    0.34770    1.000
    Na8      Na       0.39000    0.14960    0.24240    1.000
    O57      O        0.53120    0.02540    0.39260    1.000
    O58      O        0.49670    0.09730    0.27620    1.000
    O59      O        0.45800    0.14270    0.39920    1.000
    O60      O        0.55370    0.20890    0.32490    1.000
    O61      O        0.57400    0.14280    0.44540    1.000
    O62      O        0.44470    0.26670    0.31330    1.000
    O63      O        0.54850    0.33090    0.32920    1.000
    O64      O        0.50560    0.26760    0.42200    1.000
    Mo17     Mo       0.14913    0.94617    0.10894    1.000
    Mo18     Mo       0.19221    0.00853    0.00699    1.000
    P9       P        0.15230    0.98790    0.26540    1.000
    Na9      Na       0.25760    0.11000    0.14960    1.000
    O65      O        0.10740    0.96880    0.02540    1.000
    O66      O        0.22380    0.00330    0.09730    1.000
    O67      O        0.10080    0.04200    0.14270    1.000
    O68      O        0.17510    0.94630    0.20890    1.000
    O69      O        0.05460    0.92600    0.14280    1.000
    O70      O        0.18670    0.05530    0.26670    1.000
    O71      O        0.17080    0.95150    0.33090    1.000
    O72      O        0.07800    0.99440    0.26760    1.000
    Mo19     Mo       0.35087    0.94617    0.39106    1.000
    Mo20     Mo       0.30779    0.00853    0.49301    1.000
    P10      P        0.34770    0.98790    0.23460    1.000
    Na10     Na       0.24240    0.11000    0.35040    1.000
    O73      O        0.39260    0.96880    0.47460    1.000
    O74      O        0.27620    0.00330    0.40270    1.000
    O75      O        0.39920    0.04200    0.35730    1.000
    O76      O        0.32490    0.94630    0.29110    1.000
    O77      O        0.44540    0.92600    0.35720    1.000
    O78      O        0.31330    0.05530    0.23330    1.000
    O79      O        0.32920    0.95150    0.16910    1.000
    O80      O        0.42200    0.99440    0.23240    1.000
    Mo21     Mo       0.14913    0.55383    0.39106    1.000
    Mo22     Mo       0.19221    0.49147    0.49301    1.000
    P11      P        0.15230    0.51210    0.23460    1.000
    Na11     Na       0.25760    0.39000    0.35040    1.000
    O81      O        0.10740    0.53120    0.47460    1.000
    O82      O        0.22380    0.49670    0.40270    1.000
    O83      O        0.10080    0.45800    0.35730    1.000
    O84      O        0.17510    0.55370    0.29110    1.000
    O85      O        0.05460    0.57400    0.35720    1.000
    O86      O        0.18670    0.44470    0.23330    1.000
    O87      O        0.17080    0.54850    0.16910    1.000
    O88      O        0.07800    0.50560    0.23240    1.000
    Mo23     Mo       0.35087    0.55383    0.10894    1.000
    Mo24     Mo       0.30779    0.49147    0.00699    1.000
    P12      P        0.34770    0.51210    0.26540    1.000
    Na12     Na       0.24240    0.39000    0.14960    1.000
    O89      O        0.39260    0.53120    0.02540    1.000
    O90      O        0.27620    0.49670    0.09730    1.000
    O91      O        0.39920    0.45800    0.14270    1.000
    O92      O        0.32490    0.55370    0.20890    1.000
    O93      O        0.44540    0.57400    0.14280    1.000
    O94      O        0.31330    0.44470    0.26670    1.000
    O95      O        0.32920    0.54850    0.33090    1.000
    O96      O        0.42200    0.50560    0.26760    1.000
    Mo25     Mo       0.89106    0.85087    0.05383    1.000
    Mo26     Mo       0.99301    0.80779    0.99147    1.000
    P13      P        0.73460    0.84770    0.01210    1.000
    Na13     Na       0.85040    0.74240    0.89000    1.000
    O97      O        0.97460    0.89260    0.03120    1.000
    O98      O        0.90270    0.77620    0.99670    1.000
    O99      O        0.85730    0.89920    0.95800    1.000
    O100     O        0.79110    0.82490    0.05370    1.000
    O101     O        0.85720    0.94540    0.07400    1.000
    O102     O        0.73330    0.81330    0.94470    1.000
    O103     O        0.66910    0.82920    0.04850    1.000
    O104     O        0.73240    0.92200    0.00560    1.000
    Mo27     Mo       0.60894    0.64913    0.05383    1.000
    Mo28     Mo       0.50699    0.69221    0.99147    1.000
    P14      P        0.76540    0.65230    0.01210    1.000
    Na14     Na       0.64960    0.75760    0.89000    1.000
    O105     O        0.52540    0.60740    0.03120    1.000
    O106     O        0.59730    0.72380    0.99670    1.000
    O107     O        0.64270    0.60080    0.95800    1.000
    O108     O        0.70890    0.67510    0.05370    1.000
    O109     O        0.64280    0.55460    0.07400    1.000
    O110     O        0.76670    0.68670    0.94470    1.000
    O111     O        0.83090    0.67080    0.04850    1.000
    O112     O        0.76760    0.57800    0.00560    1.000
    Mo29     Mo       0.60894    0.85087    0.44617    1.000
    Mo30     Mo       0.50699    0.80779    0.50853    1.000
    P15      P        0.76540    0.84770    0.48790    1.000
    Na15     Na       0.64960    0.74240    0.61000    1.000
    O113     O        0.52540    0.89260    0.46880    1.000
    O114     O        0.59730    0.77620    0.50330    1.000
    O115     O        0.64270    0.89920    0.54200    1.000
    O116     O        0.70890    0.82490    0.44630    1.000
    O117     O        0.64280    0.94540    0.42600    1.000
    O118     O        0.76670    0.81330    0.55530    1.000
    O119     O        0.83090    0.82920    0.45150    1.000
    O120     O        0.76760    0.92200    0.49440    1.000
    Mo31     Mo       0.89106    0.64913    0.44617    1.000
    Mo32     Mo       0.99301    0.69221    0.50853    1.000
    P16      P        0.73460    0.65230    0.48790    1.000
    Na16     Na       0.85040    0.75760    0.61000    1.000
    O121     O        0.97460    0.60740    0.46880    1.000
    O122     O        0.90270    0.72380    0.50330    1.000
    O123     O        0.85730    0.60080    0.54200    1.000
    O124     O        0.79110    0.67510    0.44630    1.000
    O125     O        0.85720    0.55460    0.42600    1.000
    O126     O        0.73330    0.68670    0.55530    1.000
    O127     O        0.66910    0.67080    0.45150    1.000
    O128     O        0.73240    0.57800    0.49440    1.000
    Mo33     Mo       0.05383    0.89106    0.85087    1.000
    Mo34     Mo       0.99147    0.99301    0.80779    1.000
    P17      P        0.01210    0.73460    0.84770    1.000
    Na17     Na       0.89000    0.85040    0.74240    1.000
    O129     O        0.03120    0.97460    0.89260    1.000
    O130     O        0.99670    0.90270    0.77620    1.000
    O131     O        0.95800    0.85730    0.89920    1.000
    O132     O        0.05370    0.79110    0.82490    1.000
    O133     O        0.07400    0.85720    0.94540    1.000
    O134     O        0.94470    0.73330    0.81330    1.000
    O135     O        0.04850    0.66910    0.82920    1.000
    O136     O        0.00560    0.73240    0.92200    1.000
    Mo35     Mo       0.05383    0.60894    0.64913    1.000
    Mo36     Mo       0.99147    0.50699    0.69221    1.000
    P18      P        0.01210    0.76540    0.65230    1.000
    Na18     Na       0.89000    0.64960    0.75760    1.000
    O137     O        0.03120    0.52540    0.60740    1.000
    O138     O        0.99670    0.59730    0.72380    1.000
    O139     O        0.95800    0.64270    0.60080    1.000
    O140     O        0.05370    0.70890    0.67510    1.000
    O141     O        0.07400    0.64280    0.55460    1.000
    O142     O        0.94470    0.76670    0.68670    1.000
    O143     O        0.04850    0.83090    0.67080    1.000
    O144     O        0.00560    0.76760    0.57800    1.000
    Mo37     Mo       0.44617    0.60894    0.85087    1.000
    Mo38     Mo       0.50853    0.50699    0.80779    1.000
    P19      P        0.48790    0.76540    0.84770    1.000
    Na19     Na       0.61000    0.64960    0.74240    1.000
    O145     O        0.46880    0.52540    0.89260    1.000
    O146     O        0.50330    0.59730    0.77620    1.000
    O147     O        0.54200    0.64270    0.89920    1.000
    O148     O        0.44630    0.70890    0.82490    1.000
    O149     O        0.42600    0.64280    0.94540    1.000
    O150     O        0.55530    0.76670    0.81330    1.000
    O151     O        0.45150    0.83090    0.82920    1.000
    O152     O        0.49440    0.76760    0.92200    1.000
    Mo39     Mo       0.44617    0.89106    0.64913    1.000
    Mo40     Mo       0.50853    0.99301    0.69221    1.000
    P20      P        0.48790    0.73460    0.65230    1.000
    Na20     Na       0.61000    0.85040    0.75760    1.000
    O153     O        0.46880    0.97460    0.60740    1.000
    O154     O        0.50330    0.90270    0.72380    1.000
    O155     O        0.54200    0.85730    0.60080    1.000
    O156     O        0.44630    0.79110    0.67510    1.000
    O157     O        0.42600    0.85720    0.55460    1.000
    O158     O        0.55530    0.73330    0.68670    1.000
    O159     O        0.45150    0.66910    0.67080    1.000
    O160     O        0.49440    0.73240    0.57800    1.000
    Mo41     Mo       0.85087    0.05383    0.89106    1.000
    Mo42     Mo       0.80779    0.99147    0.99301    1.000
    P21      P        0.84770    0.01210    0.73460    1.000
    Na21     Na       0.74240    0.89000    0.85040    1.000
    O161     O        0.89260    0.03120    0.97460    1.000
    O162     O        0.77620    0.99670    0.90270    1.000
    O163     O        0.89920    0.95800    0.85730    1.000
    O164     O        0.82490    0.05370    0.79110    1.000
    O165     O        0.94540    0.07400    0.85720    1.000
    O166     O        0.81330    0.94470    0.73330    1.000
    O167     O        0.82920    0.04850    0.66910    1.000
    O168     O        0.92200    0.00560    0.73240    1.000
    Mo43     Mo       0.64913    0.05383    0.60894    1.000
    Mo44     Mo       0.69221    0.99147    0.50699    1.000
    P22      P        0.65230    0.01210    0.76540    1.000
    Na22     Na       0.75760    0.89000    0.64960    1.000
    O169     O        0.60740    0.03120    0.52540    1.000
    O170     O        0.72380    0.99670    0.59730    1.000
    O171     O        0.60080    0.95800    0.64270    1.000
    O172     O        0.67510    0.05370    0.70890    1.000
    O173     O        0.55460    0.07400    0.64280    1.000
    O174     O        0.68670    0.94470    0.76670    1.000
    O175     O        0.67080    0.04850    0.83090    1.000
    O176     O        0.57800    0.00560    0.76760    1.000
    Mo45     Mo       0.85087    0.44617    0.60894    1.000
    Mo46     Mo       0.80779    0.50853    0.50699    1.000
    P23      P        0.84770    0.48790    0.76540    1.000
    Na23     Na       0.74240    0.61000    0.64960    1.000
    O177     O        0.89260    0.46880    0.52540    1.000
    O178     O        0.77620    0.50330    0.59730    1.000
    O179     O        0.89920    0.54200    0.64270    1.000
    O180     O        0.82490    0.44630    0.70890    1.000
    O181     O        0.94540    0.42600    0.64280    1.000
    O182     O        0.81330    0.55530    0.76670    1.000
    O183     O        0.82920    0.45150    0.83090    1.000
    O184     O        0.92200    0.49440    0.76760    1.000
    Mo47     Mo       0.64913    0.44617    0.89106    1.000
    Mo48     Mo       0.69221    0.50853    0.99301    1.000
    P24      P        0.65230    0.48790    0.73460    1.000
    Na24     Na       0.75760    0.61000    0.85040    1.000
    O185     O        0.60740    0.46880    0.97460    1.000
    O186     O        0.72380    0.50330    0.90270    1.000
    O187     O        0.60080    0.54200    0.85730    1.000
    O188     O        0.67510    0.44630    0.79110    1.000
    O189     O        0.55460    0.42600    0.85720    1.000
    O190     O        0.68670    0.55530    0.73330    1.000
    O191     O        0.67080    0.45150    0.66910    1.000
    O192     O        0.57800    0.49440    0.73240    1.000
    P25      P        0.11110    0.11110    0.11110    1.000
    O193     O        0.15330    0.15330    0.15330    1.000
    P26      P        0.38890    0.38890    0.11110    1.000
    O194     O        0.34670    0.34670    0.15330    1.000
    P27      P        0.38890    0.11110    0.38890    1.000
    O195     O        0.34670    0.15330    0.34670    1.000
    P28      P        0.11110    0.38890    0.38890    1.000
    O196     O        0.15330    0.34670    0.34670    1.000
    P29      P        0.88890    0.88890    0.88890    1.000
    O197     O        0.84670    0.84670    0.84670    1.000
    P30      P        0.61110    0.61110    0.88890    1.000
    O198     O        0.65330    0.65330    0.84670    1.000
    P31      P        0.61110    0.88890    0.61110    1.000
    O199     O        0.65330    0.84670    0.65330    1.000
    P32      P        0.88890    0.61110    0.61110    1.000
    O200     O        0.84670    0.65330    0.65330    1.000
    P33      P        0.25000    0.25000    0.25000    1.000
    P34      P        0.75000    0.75000    0.75000    1.000
    Na25     Na       0.00000    0.00000    0.00000    1.000
    Na26     Na       0.50000    0.50000    0.00000    1.000
    Na27     Na       0.50000    0.00000    0.50000    1.000
    Na28     Na       0.00000    0.50000    0.50000    1.000
    O201     O        0.20620    0.29380    0.20620    1.000
    O202     O        0.29380    0.20620    0.20620    1.000
    O203     O        0.29380    0.29380    0.29380    1.000
    O204     O        0.20620    0.20620    0.29380    1.000
    O205     O        0.79380    0.70620    0.79380    1.000
    O206     O        0.70620    0.79380    0.79380    1.000
    O207     O        0.70620    0.70620    0.70620    1.000
    O208     O        0.79380    0.79380    0.70620    1.000
