# CIF file generated by openbabel 3.1.0, see https://openbabel.org
data_I
_chemical_name_common 'image0'
_cell_length_a 12.807
_cell_length_b 12.807
_cell_length_c 59.467
_cell_angle_alpha 90
_cell_angle_beta 90
_cell_angle_gamma 90
_space_group_name_H-M_alt 'P 1'
_space_group_name_Hall 'P 1'
loop_
    _symmetry_equiv_pos_as_xyz
    x,y,z
loop_
    _atom_site_label
    _atom_site_type_symbol
    _atom_site_fract_x
    _atom_site_fract_y
    _atom_site_fract_z
    _atom_site_occupancy
    Dy1      Dy       0.65588    0.07470    0.06146    1.000
    O1       O        0.36340    0.05220    0.03246    1.000
    O2       O        0.51630    0.12780    0.03988    1.000
    C1       C        0.43950    0.10970    0.02792    1.000
    C2       C        0.43980    0.15870    0.00466    1.000
    C3       C        0.34720    0.18540    0.99402    1.000
    H1       H        0.28400    0.17450    0.00140    1.000
    C4       C        0.34740    0.22850    0.97235    1.000
    C5       C        0.44090    0.24210    0.96130    1.000
    H2       H        0.44210    0.26950    0.94680    1.000
    C6       C        0.53380    0.21430    0.97202    1.000
    C7       C        0.63210    0.22680    0.95994    1.000
    N1       N        0.70900    0.23890    0.95040    1.000
    C8       C        0.53340    0.17390    0.99409    1.000
    H3       H        0.59580    0.15800    0.00130    1.000
    C9       C        0.24690    0.25990    0.96107    1.000
    O3       O        0.16030    0.24960    0.97094    1.000
    O4       O        0.25480    0.29720    0.94164    1.000
    O5       O        0.60340    0.93670    0.08100    1.000
    O6       O        0.45760    0.84600    0.08800    1.000
    C10      C        0.55220    0.86580    0.09107    1.000
    C11      C        0.60990    0.80530    0.10863    1.000
    C12      C        0.76900    0.78500    0.13030    1.000
    C13      C        0.87900    0.80500    0.13230    1.000
    N2       N        0.96500    0.83300    0.13520    1.000
    C14      C        0.71530    0.83330    0.11230    1.000
    C15      C        0.71790    0.72300    0.14500    1.000
    H4       H        0.74840    0.88180    0.10310    1.000
    H5       H        0.75260    0.69770    0.15770    1.000
    Dy2      Dy       0.15588    0.57470    0.56146    1.000
    O7       O        0.86340    0.55220    0.53246    1.000
    O8       O        0.01630    0.62780    0.53988    1.000
    C16      C        0.93950    0.60970    0.52792    1.000
    C17      C        0.93980    0.65870    0.50466    1.000
    C18      C        0.84720    0.68540    0.49402    1.000
    H6       H        0.78400    0.67450    0.50140    1.000
    C19      C        0.84740    0.72850    0.47235    1.000
    C20      C        0.94090    0.74210    0.46130    1.000
    H7       H        0.94210    0.76950    0.44680    1.000
    C21      C        0.03380    0.71430    0.47202    1.000
    C22      C        0.13210    0.72680    0.45994    1.000
    N3       N        0.20900    0.73890    0.45040    1.000
    C23      C        0.03340    0.67390    0.49409    1.000
    H8       H        0.09580    0.65800    0.50130    1.000
    C24      C        0.74690    0.75990    0.46107    1.000
    O9       O        0.66030    0.74960    0.47094    1.000
    O10      O        0.75480    0.79720    0.44164    1.000
    O11      O        0.10340    0.43670    0.58100    1.000
    O12      O        0.95760    0.34600    0.58800    1.000
    C25      C        0.05220    0.36580    0.59107    1.000
    C26      C        0.10990    0.30530    0.60863    1.000
    C27      C        0.26900    0.28500    0.63030    1.000
    C28      C        0.37900    0.30500    0.63230    1.000
    N4       N        0.46500    0.33300    0.63520    1.000
    C29      C        0.21530    0.33330    0.61230    1.000
    C30      C        0.21790    0.22300    0.64500    1.000
    H9       H        0.24840    0.38180    0.60310    1.000
    H10      H        0.25260    0.19770    0.65770    1.000
    Dy3      Dy       0.34412    0.92530    0.06146    1.000
    O13      O        0.63660    0.94780    0.03246    1.000
    O14      O        0.48370    0.87220    0.03988    1.000
    C31      C        0.56050    0.89030    0.02792    1.000
    C32      C        0.56020    0.84130    0.00466    1.000
    C33      C        0.65280    0.81460    0.99402    1.000
    H11      H        0.71600    0.82550    0.00140    1.000
    C34      C        0.65260    0.77150    0.97235    1.000
    C35      C        0.55910    0.75790    0.96130    1.000
    H12      H        0.55790    0.73050    0.94680    1.000
    C36      C        0.46620    0.78570    0.97202    1.000
    C37      C        0.36790    0.77320    0.95994    1.000
    N5       N        0.29100    0.76110    0.95040    1.000
    C38      C        0.46660    0.82610    0.99409    1.000
    H13      H        0.40420    0.84200    0.00130    1.000
    C39      C        0.75310    0.74010    0.96107    1.000
    O15      O        0.83970    0.75040    0.97094    1.000
    O16      O        0.74520    0.70280    0.94164    1.000
    O17      O        0.39660    0.06330    0.08100    1.000
    O18      O        0.54240    0.15400    0.08800    1.000
    C40      C        0.44780    0.13420    0.09107    1.000
    C41      C        0.39010    0.19470    0.10863    1.000
    C42      C        0.23100    0.21500    0.13030    1.000
    C43      C        0.12100    0.19500    0.13230    1.000
    N6       N        0.03500    0.16700    0.13520    1.000
    C44      C        0.28470    0.16670    0.11230    1.000
    C45      C        0.28210    0.27700    0.14500    1.000
    H14      H        0.25160    0.11820    0.10310    1.000
    H15      H        0.24740    0.30230    0.15770    1.000
    Dy4      Dy       0.84412    0.42530    0.56146    1.000
    O19      O        0.13660    0.44780    0.53246    1.000
    O20      O        0.98370    0.37220    0.53988    1.000
    C46      C        0.06050    0.39030    0.52792    1.000
    C47      C        0.06020    0.34130    0.50466    1.000
    C48      C        0.15280    0.31460    0.49402    1.000
    H16      H        0.21600    0.32550    0.50140    1.000
    C49      C        0.15260    0.27150    0.47235    1.000
    C50      C        0.05910    0.25790    0.46130    1.000
    H17      H        0.05790    0.23050    0.44680    1.000
    C51      C        0.96620    0.28570    0.47202    1.000
    C52      C        0.86790    0.27320    0.45994    1.000
    N7       N        0.79100    0.26110    0.45040    1.000
    C53      C        0.96660    0.32610    0.49409    1.000
    H18      H        0.90420    0.34200    0.50130    1.000
    C54      C        0.25310    0.24010    0.46107    1.000
    O21      O        0.33970    0.25040    0.47094    1.000
    O22      O        0.24520    0.20280    0.44164    1.000
    O23      O        0.89660    0.56330    0.58100    1.000
    O24      O        0.04240    0.65400    0.58800    1.000
    C55      C        0.94780    0.63420    0.59107    1.000
    C56      C        0.89010    0.69470    0.60863    1.000
    C57      C        0.73100    0.71500    0.63030    1.000
    C58      C        0.62100    0.69500    0.63230    1.000
    N8       N        0.53500    0.66700    0.63520    1.000
    C59      C        0.78470    0.66670    0.61230    1.000
    C60      C        0.78210    0.77700    0.64500    1.000
    H19      H        0.75160    0.61820    0.60310    1.000
    H20      H        0.74740    0.80230    0.65770    1.000
    Dy5      Dy       0.07470    0.34412    0.93854    1.000
    O25      O        0.05220    0.63660    0.96754    1.000
    O26      O        0.12780    0.48370    0.96012    1.000
    C61      C        0.10970    0.56050    0.97208    1.000
    C62      C        0.15870    0.56020    0.99534    1.000
    C63      C        0.18540    0.65280    0.00598    1.000
    H21      H        0.17450    0.71600    0.99860    1.000
    C64      C        0.22850    0.65260    0.02765    1.000
    C65      C        0.24210    0.55910    0.03870    1.000
    H22      H        0.26950    0.55790    0.05320    1.000
    C66      C        0.21430    0.46620    0.02798    1.000
    C67      C        0.22680    0.36790    0.04006    1.000
    N9       N        0.23890    0.29100    0.04960    1.000
    C68      C        0.17390    0.46660    0.00591    1.000
    H23      H        0.15800    0.40420    0.99870    1.000
    C69      C        0.25990    0.75310    0.03893    1.000
    O27      O        0.24960    0.83970    0.02906    1.000
    O28      O        0.29720    0.74520    0.05836    1.000
    O29      O        0.93670    0.39660    0.91900    1.000
    O30      O        0.84600    0.54240    0.91200    1.000
    C70      C        0.86580    0.44780    0.90893    1.000
    C71      C        0.80530    0.39010    0.89137    1.000
    C72      C        0.78500    0.23100    0.86970    1.000
    C73      C        0.80500    0.12100    0.86770    1.000
    N10      N        0.83300    0.03500    0.86480    1.000
    C74      C        0.83330    0.28470    0.88770    1.000
    C75      C        0.72300    0.28210    0.85500    1.000
    H24      H        0.88180    0.25160    0.89690    1.000
    H25      H        0.69770    0.24740    0.84230    1.000
    Dy6      Dy       0.57470    0.84412    0.43854    1.000
    O31      O        0.55220    0.13660    0.46754    1.000
    O32      O        0.62780    0.98370    0.46012    1.000
    C76      C        0.60970    0.06050    0.47208    1.000
    C77      C        0.65870    0.06020    0.49534    1.000
    C78      C        0.68540    0.15280    0.50598    1.000
    H26      H        0.67450    0.21600    0.49860    1.000
    C79      C        0.72850    0.15260    0.52765    1.000
    C80      C        0.74210    0.05910    0.53870    1.000
    H27      H        0.76950    0.05790    0.55320    1.000
    C81      C        0.71430    0.96620    0.52798    1.000
    C82      C        0.72680    0.86790    0.54006    1.000
    N11      N        0.73890    0.79100    0.54960    1.000
    C83      C        0.67390    0.96660    0.50591    1.000
    H28      H        0.65800    0.90420    0.49870    1.000
    C84      C        0.75990    0.25310    0.53893    1.000
    O33      O        0.74960    0.33970    0.52906    1.000
    O34      O        0.79720    0.24520    0.55836    1.000
    O35      O        0.43670    0.89660    0.41900    1.000
    O36      O        0.34600    0.04240    0.41200    1.000
    C85      C        0.36580    0.94780    0.40893    1.000
    C86      C        0.30530    0.89010    0.39137    1.000
    C87      C        0.28500    0.73100    0.36970    1.000
    C88      C        0.30500    0.62100    0.36770    1.000
    N12      N        0.33300    0.53500    0.36480    1.000
    C89      C        0.33330    0.78470    0.38770    1.000
    C90      C        0.22300    0.78210    0.35500    1.000
    H29      H        0.38180    0.75160    0.39690    1.000
    H30      H        0.19770    0.74740    0.34230    1.000
    Dy7      Dy       0.92530    0.65588    0.93854    1.000
    O37      O        0.94780    0.36340    0.96754    1.000
    O38      O        0.87220    0.51630    0.96012    1.000
    C91      C        0.89030    0.43950    0.97208    1.000
    C92      C        0.84130    0.43980    0.99534    1.000
    C93      C        0.81460    0.34720    0.00598    1.000
    H31      H        0.82550    0.28400    0.99860    1.000
    C94      C        0.77150    0.34740    0.02765    1.000
    C95      C        0.75790    0.44090    0.03870    1.000
    H32      H        0.73050    0.44210    0.05320    1.000
    C96      C        0.78570    0.53380    0.02798    1.000
    C97      C        0.77320    0.63210    0.04006    1.000
    N13      N        0.76110    0.70900    0.04960    1.000
    C98      C        0.82610    0.53340    0.00591    1.000
    H33      H        0.84200    0.59580    0.99870    1.000
    C99      C        0.74010    0.24690    0.03893    1.000
    O39      O        0.75040    0.16030    0.02906    1.000
    O40      O        0.70280    0.25480    0.05836    1.000
    O41      O        0.06330    0.60340    0.91900    1.000
    O42      O        0.15400    0.45760    0.91200    1.000
    C100     C        0.13420    0.55220    0.90893    1.000
    C101     C        0.19470    0.60990    0.89137    1.000
    C102     C        0.21500    0.76900    0.86970    1.000
    C103     C        0.19500    0.87900    0.86770    1.000
    N14      N        0.16700    0.96500    0.86480    1.000
    C104     C        0.16670    0.71530    0.88770    1.000
    C105     C        0.27700    0.71790    0.85500    1.000
    H34      H        0.11820    0.74840    0.89690    1.000
    H35      H        0.30230    0.75260    0.84230    1.000
    Dy8      Dy       0.42530    0.15588    0.43854    1.000
    O43      O        0.44780    0.86340    0.46754    1.000
    O44      O        0.37220    0.01630    0.46012    1.000
    C106     C        0.39030    0.93950    0.47208    1.000
    C107     C        0.34130    0.93980    0.49534    1.000
    C108     C        0.31460    0.84720    0.50598    1.000
    H36      H        0.32550    0.78400    0.49860    1.000
    C109     C        0.27150    0.84740    0.52765    1.000
    C110     C        0.25790    0.94090    0.53870    1.000
    H37      H        0.23050    0.94210    0.55320    1.000
    C111     C        0.28570    0.03380    0.52798    1.000
    C112     C        0.27320    0.13210    0.54006    1.000
    N15      N        0.26110    0.20900    0.54960    1.000
    C113     C        0.32610    0.03340    0.50591    1.000
    H38      H        0.34200    0.09580    0.49870    1.000
    C114     C        0.24010    0.74690    0.53893    1.000
    O45      O        0.25040    0.66030    0.52906    1.000
    O46      O        0.20280    0.75480    0.55836    1.000
    O47      O        0.56330    0.10340    0.41900    1.000
    O48      O        0.65400    0.95760    0.41200    1.000
    C115     C        0.63420    0.05220    0.40893    1.000
    C116     C        0.69470    0.10990    0.39137    1.000
    C117     C        0.71500    0.26900    0.36970    1.000
    C118     C        0.69500    0.37900    0.36770    1.000
    N16      N        0.66700    0.46500    0.36480    1.000
    C119     C        0.66670    0.21530    0.38770    1.000
    C120     C        0.77700    0.21790    0.35500    1.000
    H39      H        0.61820    0.24840    0.39690    1.000
    H40      H        0.80230    0.25260    0.34230    1.000
    Dy9      Dy       0.84412    0.07470    0.68854    1.000
    O49      O        0.13660    0.05220    0.71754    1.000
    O50      O        0.98370    0.12780    0.71012    1.000
    C121     C        0.06050    0.10970    0.72208    1.000
    C122     C        0.06020    0.15870    0.74534    1.000
    C123     C        0.15280    0.18540    0.75598    1.000
    H41      H        0.21600    0.17450    0.74860    1.000
    C124     C        0.15260    0.22850    0.77765    1.000
    C125     C        0.05910    0.24210    0.78870    1.000
    H42      H        0.05790    0.26950    0.80320    1.000
    C126     C        0.96620    0.21430    0.77798    1.000
    C127     C        0.86790    0.22680    0.79006    1.000
    N17      N        0.79100    0.23890    0.79960    1.000
    C128     C        0.96660    0.17390    0.75591    1.000
    H43      H        0.90420    0.15800    0.74870    1.000
    C129     C        0.25310    0.25990    0.78893    1.000
    O51      O        0.33970    0.24960    0.77906    1.000
    O52      O        0.24520    0.29720    0.80836    1.000
    O53      O        0.89660    0.93670    0.66900    1.000
    O54      O        0.04240    0.84600    0.66200    1.000
    C130     C        0.94780    0.86580    0.65893    1.000
    C131     C        0.89010    0.80530    0.64137    1.000
    C132     C        0.73100    0.78500    0.61970    1.000
    C133     C        0.62100    0.80500    0.61770    1.000
    N18      N        0.53500    0.83300    0.61480    1.000
    C134     C        0.78470    0.83330    0.63770    1.000
    C135     C        0.78210    0.72300    0.60500    1.000
    H44      H        0.75160    0.88180    0.64690    1.000
    H45      H        0.74740    0.69770    0.59230    1.000
    Dy10     Dy       0.34412    0.57470    0.18854    1.000
    O55      O        0.63660    0.55220    0.21754    1.000
    O56      O        0.48370    0.62780    0.21012    1.000
    C136     C        0.56050    0.60970    0.22208    1.000
    C137     C        0.56020    0.65870    0.24534    1.000
    C138     C        0.65280    0.68540    0.25598    1.000
    H46      H        0.71600    0.67450    0.24860    1.000
    C139     C        0.65260    0.72850    0.27765    1.000
    C140     C        0.55910    0.74210    0.28870    1.000
    H47      H        0.55790    0.76950    0.30320    1.000
    C141     C        0.46620    0.71430    0.27798    1.000
    C142     C        0.36790    0.72680    0.29006    1.000
    N19      N        0.29100    0.73890    0.29960    1.000
    C143     C        0.46660    0.67390    0.25591    1.000
    H48      H        0.40420    0.65800    0.24870    1.000
    C144     C        0.75310    0.75990    0.28893    1.000
    O57      O        0.83970    0.74960    0.27906    1.000
    O58      O        0.74520    0.79720    0.30836    1.000
    O59      O        0.39660    0.43670    0.16900    1.000
    O60      O        0.54240    0.34600    0.16200    1.000
    C145     C        0.44780    0.36580    0.15893    1.000
    C146     C        0.39010    0.30530    0.14137    1.000
    C147     C        0.23100    0.28500    0.11970    1.000
    C148     C        0.12100    0.30500    0.11770    1.000
    N20      N        0.03500    0.33300    0.11480    1.000
    C149     C        0.28470    0.33330    0.13770    1.000
    C150     C        0.28210    0.22300    0.10500    1.000
    H49      H        0.25160    0.38180    0.14690    1.000
    H50      H        0.24740    0.19770    0.09230    1.000
    Dy11     Dy       0.15588    0.92530    0.68854    1.000
    O61      O        0.86340    0.94780    0.71754    1.000
    O62      O        0.01630    0.87220    0.71012    1.000
    C151     C        0.93950    0.89030    0.72208    1.000
    C152     C        0.93980    0.84130    0.74534    1.000
    C153     C        0.84720    0.81460    0.75598    1.000
    H51      H        0.78400    0.82550    0.74860    1.000
    C154     C        0.84740    0.77150    0.77765    1.000
    C155     C        0.94090    0.75790    0.78870    1.000
    H52      H        0.94210    0.73050    0.80320    1.000
    C156     C        0.03380    0.78570    0.77798    1.000
    C157     C        0.13210    0.77320    0.79006    1.000
    N21      N        0.20900    0.76110    0.79960    1.000
    C158     C        0.03340    0.82610    0.75591    1.000
    H53      H        0.09580    0.84200    0.74870    1.000
    C159     C        0.74690    0.74010    0.78893    1.000
    O63      O        0.66030    0.75040    0.77906    1.000
    O64      O        0.75480    0.70280    0.80836    1.000
    O65      O        0.10340    0.06330    0.66900    1.000
    O66      O        0.95760    0.15400    0.66200    1.000
    C160     C        0.05220    0.13420    0.65893    1.000
    C161     C        0.10990    0.19470    0.64137    1.000
    C162     C        0.26900    0.21500    0.61970    1.000
    C163     C        0.37900    0.19500    0.61770    1.000
    N22      N        0.46500    0.16700    0.61480    1.000
    C164     C        0.21530    0.16670    0.63770    1.000
    C165     C        0.21790    0.27700    0.60500    1.000
    H54      H        0.24840    0.11820    0.64690    1.000
    H55      H        0.25260    0.30230    0.59230    1.000
    Dy12     Dy       0.65588    0.42530    0.18854    1.000
    O67      O        0.36340    0.44780    0.21754    1.000
    O68      O        0.51630    0.37220    0.21012    1.000
    C166     C        0.43950    0.39030    0.22208    1.000
    C167     C        0.43980    0.34130    0.24534    1.000
    C168     C        0.34720    0.31460    0.25598    1.000
    H56      H        0.28400    0.32550    0.24860    1.000
    C169     C        0.34740    0.27150    0.27765    1.000
    C170     C        0.44090    0.25790    0.28870    1.000
    H57      H        0.44210    0.23050    0.30320    1.000
    C171     C        0.53380    0.28570    0.27798    1.000
    C172     C        0.63210    0.27320    0.29006    1.000
    N23      N        0.70900    0.26110    0.29960    1.000
    C173     C        0.53340    0.32610    0.25591    1.000
    H58      H        0.59580    0.34200    0.24870    1.000
    C174     C        0.24690    0.24010    0.28893    1.000
    O69      O        0.16030    0.25040    0.27906    1.000
    O70      O        0.25480    0.20280    0.30836    1.000
    O71      O        0.60340    0.56330    0.16900    1.000
    O72      O        0.45760    0.65400    0.16200    1.000
    C175     C        0.55220    0.63420    0.15893    1.000
    C176     C        0.60990    0.69470    0.14137    1.000
    C177     C        0.76900    0.71500    0.11970    1.000
    C178     C        0.87900    0.69500    0.11770    1.000
    N24      N        0.96500    0.66700    0.11480    1.000
    C179     C        0.71530    0.66670    0.13770    1.000
    C180     C        0.71790    0.77700    0.10500    1.000
    H59      H        0.74840    0.61820    0.14690    1.000
    H60      H        0.75260    0.80230    0.09230    1.000
    Dy13     Dy       0.42530    0.34412    0.81146    1.000
    O73      O        0.44780    0.63660    0.78246    1.000
    O74      O        0.37220    0.48370    0.78988    1.000
    C181     C        0.39030    0.56050    0.77792    1.000
    C182     C        0.34130    0.56020    0.75466    1.000
    C183     C        0.31460    0.65280    0.74402    1.000
    H61      H        0.32550    0.71600    0.75140    1.000
    C184     C        0.27150    0.65260    0.72235    1.000
    C185     C        0.25790    0.55910    0.71130    1.000
    H62      H        0.23050    0.55790    0.69680    1.000
    C186     C        0.28570    0.46620    0.72202    1.000
    C187     C        0.27320    0.36790    0.70994    1.000
    N25      N        0.26110    0.29100    0.70040    1.000
    C188     C        0.32610    0.46660    0.74409    1.000
    H63      H        0.34200    0.40420    0.75130    1.000
    C189     C        0.24010    0.75310    0.71107    1.000
    O75      O        0.25040    0.83970    0.72094    1.000
    O76      O        0.20280    0.74520    0.69164    1.000
    O77      O        0.56330    0.39660    0.83100    1.000
    O78      O        0.65400    0.54240    0.83800    1.000
    C190     C        0.63420    0.44780    0.84107    1.000
    C191     C        0.69470    0.39010    0.85863    1.000
    C192     C        0.71500    0.23100    0.88030    1.000
    C193     C        0.69500    0.12100    0.88230    1.000
    N26      N        0.66700    0.03500    0.88520    1.000
    C194     C        0.66670    0.28470    0.86230    1.000
    C195     C        0.77700    0.28210    0.89500    1.000
    H64      H        0.61820    0.25160    0.85310    1.000
    H65      H        0.80230    0.24740    0.90770    1.000
    Dy14     Dy       0.92530    0.84412    0.31146    1.000
    O79      O        0.94780    0.13660    0.28246    1.000
    O80      O        0.87220    0.98370    0.28988    1.000
    C196     C        0.89030    0.06050    0.27792    1.000
    C197     C        0.84130    0.06020    0.25466    1.000
    C198     C        0.81460    0.15280    0.24402    1.000
    H66      H        0.82550    0.21600    0.25140    1.000
    C199     C        0.77150    0.15260    0.22235    1.000
    C200     C        0.75790    0.05910    0.21130    1.000
    H67      H        0.73050    0.05790    0.19680    1.000
    C201     C        0.78570    0.96620    0.22202    1.000
    C202     C        0.77320    0.86790    0.20994    1.000
    N27      N        0.76110    0.79100    0.20040    1.000
    C203     C        0.82610    0.96660    0.24409    1.000
    H68      H        0.84200    0.90420    0.25130    1.000
    C204     C        0.74010    0.25310    0.21107    1.000
    O81      O        0.75040    0.33970    0.22094    1.000
    O82      O        0.70280    0.24520    0.19164    1.000
    O83      O        0.06330    0.89660    0.33100    1.000
    O84      O        0.15400    0.04240    0.33800    1.000
    C205     C        0.13420    0.94780    0.34107    1.000
    C206     C        0.19470    0.89010    0.35863    1.000
    C207     C        0.21500    0.73100    0.38030    1.000
    C208     C        0.19500    0.62100    0.38230    1.000
    N28      N        0.16700    0.53500    0.38520    1.000
    C209     C        0.16670    0.78470    0.36230    1.000
    C210     C        0.27700    0.78210    0.39500    1.000
    H69      H        0.11820    0.75160    0.35310    1.000
    H70      H        0.30230    0.74740    0.40770    1.000
    Dy15     Dy       0.57470    0.65588    0.81146    1.000
    O85      O        0.55220    0.36340    0.78246    1.000
    O86      O        0.62780    0.51630    0.78988    1.000
    C211     C        0.60970    0.43950    0.77792    1.000
    C212     C        0.65870    0.43980    0.75466    1.000
    C213     C        0.68540    0.34720    0.74402    1.000
    H71      H        0.67450    0.28400    0.75140    1.000
    C214     C        0.72850    0.34740    0.72235    1.000
    C215     C        0.74210    0.44090    0.71130    1.000
    H72      H        0.76950    0.44210    0.69680    1.000
    C216     C        0.71430    0.53380    0.72202    1.000
    C217     C        0.72680    0.63210    0.70994    1.000
    N29      N        0.73890    0.70900    0.70040    1.000
    C218     C        0.67390    0.53340    0.74409    1.000
    H73      H        0.65800    0.59580    0.75130    1.000
    C219     C        0.75990    0.24690    0.71107    1.000
    O87      O        0.74960    0.16030    0.72094    1.000
    O88      O        0.79720    0.25480    0.69164    1.000
    O89      O        0.43670    0.60340    0.83100    1.000
    O90      O        0.34600    0.45760    0.83800    1.000
    C220     C        0.36580    0.55220    0.84107    1.000
    C221     C        0.30530    0.60990    0.85863    1.000
    C222     C        0.28500    0.76900    0.88030    1.000
    C223     C        0.30500    0.87900    0.88230    1.000
    N30      N        0.33300    0.96500    0.88520    1.000
    C224     C        0.33330    0.71530    0.86230    1.000
    C225     C        0.22300    0.71790    0.89500    1.000
    H74      H        0.38180    0.74840    0.85310    1.000
    H75      H        0.19770    0.75260    0.90770    1.000
    Dy16     Dy       0.07470    0.15588    0.31146    1.000
    O91      O        0.05220    0.86340    0.28246    1.000
    O92      O        0.12780    0.01630    0.28988    1.000
    C226     C        0.10970    0.93950    0.27792    1.000
    C227     C        0.15870    0.93980    0.25466    1.000
    C228     C        0.18540    0.84720    0.24402    1.000
    H76      H        0.17450    0.78400    0.25140    1.000
    C229     C        0.22850    0.84740    0.22235    1.000
    C230     C        0.24210    0.94090    0.21130    1.000
    H77      H        0.26950    0.94210    0.19680    1.000
    C231     C        0.21430    0.03380    0.22202    1.000
    C232     C        0.22680    0.13210    0.20994    1.000
    N31      N        0.23890    0.20900    0.20040    1.000
    C233     C        0.17390    0.03340    0.24409    1.000
    H78      H        0.15800    0.09580    0.25130    1.000
    C234     C        0.25990    0.74690    0.21107    1.000
    O93      O        0.24960    0.66030    0.22094    1.000
    O94      O        0.29720    0.75480    0.19164    1.000
    O95      O        0.93670    0.10340    0.33100    1.000
    O96      O        0.84600    0.95760    0.33800    1.000
    C235     C        0.86580    0.05220    0.34107    1.000
    C236     C        0.80530    0.10990    0.35863    1.000
    C237     C        0.78500    0.26900    0.38030    1.000
    C238     C        0.80500    0.37900    0.38230    1.000
    N32      N        0.83300    0.46500    0.38520    1.000
    C239     C        0.83330    0.21530    0.36230    1.000
    C240     C        0.72300    0.21790    0.39500    1.000
    H79      H        0.88180    0.24840    0.35310    1.000
    H80      H        0.69770    0.25260    0.40770    1.000
    C241     C        0.55720    0.75000    0.12500    1.000
    H81      H        0.48460    0.75000    0.12500    1.000
    C242     C        0.05720    0.25000    0.62500    1.000
    H82      H        0.98460    0.25000    0.62500    1.000
    C243     C        0.44280    0.25000    0.12500    1.000
    H83      H        0.51540    0.25000    0.12500    1.000
    C244     C        0.75000    0.44280    0.87500    1.000
    H84      H        0.75000    0.51540    0.87500    1.000
    C245     C        0.25000    0.94280    0.37500    1.000
    H85      H        0.25000    0.01540    0.37500    1.000
    C246     C        0.25000    0.55720    0.87500    1.000
    H86      H        0.25000    0.48460    0.87500    1.000
    C247     C        0.75000    0.05720    0.37500    1.000
    H87      H        0.75000    0.98460    0.37500    1.000
    C248     C        0.94280    0.75000    0.62500    1.000
    H88      H        0.01540    0.75000    0.62500    1.000
