# CIF file generated by openbabel 3.1.0, see https://openbabel.org
data_I
_chemical_name_common 'image0'
_cell_length_a 8.3661
_cell_length_b 29.139
_cell_length_c 18.8583
_cell_angle_alpha 90
_cell_angle_beta 94.307
_cell_angle_gamma 90
_space_group_name_H-M_alt 'P 1'
_space_group_name_Hall 'P 1'
loop_
    _symmetry_equiv_pos_as_xyz
    x,y,z
loop_
    _atom_site_label
    _atom_site_type_symbol
    _atom_site_fract_x
    _atom_site_fract_y
    _atom_site_fract_z
    _atom_site_occupancy
    Ni1      Ni       0.02097    0.74354    0.72388    1.000
    N1       N        0.21040    0.51525    0.45409    1.000
    N2       N        0.42040    0.55753    0.43398    1.000
    N3       N        0.82660    0.72767    0.26475    1.000
    N4       N        0.68580    0.68903    0.33822    1.000
    N5       N        0.89580    0.69150    0.67550    1.000
    N6       N        0.76360    0.65361    0.58925    1.000
    O1       O        0.87240    0.51214    0.40532    1.000
    O2       O        0.93280    0.58619    0.39258    1.000
    O3       O        0.10400    0.71040    0.81409    1.000
    O4       O        0.24520    0.70206    0.72174    1.000
    O5       O        0.98220    0.28660    0.86442    1.000
    O6       O        0.84220    0.30613    0.76658    1.000
    C1       C        0.59830    0.60444    0.51000    1.000
    H1       H        0.58200    0.58490    0.54780    1.000
    C2       C        0.52800    0.59538    0.44313    1.000
    C3       C        0.55350    0.62313    0.38544    1.000
    H2       H        0.50590    0.61670    0.34040    1.000
    C4       C        0.65220    0.66066    0.39737    1.000
    C5       C        0.72130    0.67163    0.46364    1.000
    H3       H        0.78510    0.69760    0.47030    1.000
    C6       C        0.69390    0.64308    0.52023    1.000
    C7       C        0.31120    0.54627    0.48035    1.000
    H4       H        0.30800    0.55900    0.52540    1.000
    C8       C        0.25640    0.50606    0.38720    1.000
    H5       H        0.20600    0.48520    0.35560    1.000
    C9       C        0.38510    0.53166    0.37400    1.000
    H6       H        0.43900    0.53180    0.33260    1.000
    C10      C        0.83190    0.70413    0.32410    1.000
    H7       H        0.92510    0.69860    0.35290    1.000
    C11      C        0.57960    0.70424    0.28400    1.000
    H8       H        0.46960    0.69910    0.27890    1.000
    C12      C        0.66810    0.72812    0.23980    1.000
    H9       H        0.62760    0.74280    0.19850    1.000
    C13      C        0.85010    0.69056    0.60817    1.000
    H10      H        0.87530    0.71340    0.57640    1.000
    C14      C        0.83880    0.65228    0.70180    1.000
    H11      H        0.85280    0.64310    0.74910    1.000
    C15      C        0.75940    0.62876    0.65010    1.000
    H12      H        0.71000    0.60040    0.65470    1.000
    C16      C        0.82680    0.54507    0.29140    1.000
    C17      C        0.79110    0.50282    0.26063    1.000
    H13      H        0.79310    0.47660    0.28880    1.000
    C18      C        0.75230    0.49926    0.18799    1.000
    H14      H        0.72730    0.47070    0.16820    1.000
    C19      C        0.75020    0.53769    0.14431    1.000
    C20      C        0.77960    0.57993    0.17613    1.000
    H15      H        0.77330    0.60640    0.14840    1.000
    C21      C        0.81820    0.58347    0.24838    1.000
    H16      H        0.83880    0.61220    0.26840    1.000
    C22      C        0.71950    0.53332    0.06593    1.000
    C23      C        0.76690    0.49371    0.03161    1.000
    H17      H        0.81660    0.47020    0.05840    1.000
    C24      C        0.74160    0.48842    0.95826    1.000
    C25      C        0.66790    0.52417    0.91915    1.000
    H18      H        0.65160    0.52130    0.87000    1.000
    C26      C        0.61830    0.56382    0.95155    1.000
    C27      C        0.64580    0.56819    0.02506    1.000
    H19      H        0.61440    0.59490    0.04720    1.000
    C28      C        0.52550    0.59933    0.90928    1.000
    C29      C        0.55040    0.60782    0.83830    1.000
    H20      H        0.63240    0.59260    0.81720    1.000
    C30      C        0.45430    0.63865    0.79872    1.000
    H21      H        0.47220    0.64380    0.75130    1.000
    C31      C        0.33190    0.66189    0.82881    1.000
    C32      C        0.30810    0.65398    0.89950    1.000
    H22      H        0.22650    0.66930    0.92060    1.000
    C33      C        0.40420    0.62361    0.93894    1.000
    H23      H        0.38760    0.61920    0.98670    1.000
    C34      C        0.22230    0.69317    0.78551    1.000
    C35      C        0.78390    0.44478    0.92433    1.000
    C36      C        0.69890    0.42945    0.86240    1.000
    H24      H        0.61760    0.44760    0.84100    1.000
    C37      C        0.73360    0.38766    0.83220    1.000
    H25      H        0.67580    0.37820    0.79070    1.000
    C38      C        0.85300    0.35981    0.86291    1.000
    C39      C        0.93730    0.37438    0.92507    1.000
    H26      H        0.01620    0.35570    0.94710    1.000
    C40      C        0.90470    0.41665    0.95453    1.000
    H27      H        0.96480    0.42630    0.99530    1.000
    C41      C        0.89320    0.31541    0.82976    1.000
    C42      C        0.88140    0.54836    0.36932    1.000
    Ni2      Ni       0.97903    0.24354    0.77612    1.000
    N7       N        0.78960    0.01525    0.04591    1.000
    N8       N        0.57960    0.05753    0.06602    1.000
    N9       N        0.17340    0.22767    0.23525    1.000
    N10      N        0.31420    0.18903    0.16178    1.000
    N11      N        0.10420    0.19150    0.82450    1.000
    N12      N        0.23640    0.15361    0.91075    1.000
    O7       O        0.12760    0.01214    0.09468    1.000
    O8       O        0.06720    0.08619    0.10742    1.000
    O9       O        0.89600    0.21040    0.68591    1.000
    O10      O        0.75480    0.20206    0.77826    1.000
    O11      O        0.01780    0.78660    0.63558    1.000
    O12      O        0.15780    0.80613    0.73342    1.000
    C43      C        0.40170    0.10444    0.99000    1.000
    H28      H        0.41800    0.08490    0.95220    1.000
    C44      C        0.47200    0.09538    0.05687    1.000
    C45      C        0.44650    0.12313    0.11456    1.000
    H29      H        0.49410    0.11670    0.15960    1.000
    C46      C        0.34780    0.16066    0.10263    1.000
    C47      C        0.27870    0.17163    0.03636    1.000
    H30      H        0.21490    0.19760    0.02970    1.000
    C48      C        0.30610    0.14308    0.97977    1.000
    C49      C        0.68880    0.04627    0.01965    1.000
    H31      H        0.69200    0.05900    0.97460    1.000
    C50      C        0.74360    0.00606    0.11280    1.000
    H32      H        0.79400    0.98520    0.14440    1.000
    C51      C        0.61490    0.03166    0.12600    1.000
    H33      H        0.56100    0.03180    0.16740    1.000
    C52      C        0.16810    0.20413    0.17590    1.000
    H34      H        0.07490    0.19860    0.14710    1.000
    C53      C        0.42040    0.20424    0.21600    1.000
    H35      H        0.53040    0.19910    0.22110    1.000
    C54      C        0.33190    0.22812    0.26020    1.000
    H36      H        0.37240    0.24280    0.30150    1.000
    C55      C        0.14990    0.19056    0.89183    1.000
    H37      H        0.12470    0.21340    0.92360    1.000
    C56      C        0.16120    0.15228    0.79820    1.000
    H38      H        0.14720    0.14310    0.75090    1.000
    C57      C        0.24060    0.12876    0.84990    1.000
    H39      H        0.29000    0.10040    0.84530    1.000
    C58      C        0.17320    0.04507    0.20860    1.000
    C59      C        0.20890    0.00282    0.23937    1.000
    H40      H        0.20690    0.97660    0.21120    1.000
    C60      C        0.24770    0.99926    0.31201    1.000
    H41      H        0.27270    0.97070    0.33180    1.000
    C61      C        0.24980    0.03769    0.35569    1.000
    C62      C        0.22040    0.07993    0.32387    1.000
    H42      H        0.22670    0.10640    0.35160    1.000
    C63      C        0.18180    0.08347    0.25162    1.000
    H43      H        0.16120    0.11220    0.23160    1.000
    C64      C        0.28050    0.03332    0.43407    1.000
    C65      C        0.23310    0.99371    0.46839    1.000
    H44      H        0.18340    0.97020    0.44160    1.000
    C66      C        0.25840    0.98842    0.54174    1.000
    C67      C        0.33210    0.02417    0.58085    1.000
    H45      H        0.34840    0.02130    0.63000    1.000
    C68      C        0.38170    0.06382    0.54845    1.000
    C69      C        0.35420    0.06819    0.47494    1.000
    H46      H        0.38560    0.09490    0.45280    1.000
    C70      C        0.47450    0.09933    0.59072    1.000
    C71      C        0.44960    0.10782    0.66170    1.000
    H47      H        0.36760    0.09260    0.68280    1.000
    C72      C        0.54570    0.13865    0.70128    1.000
    H48      H        0.52780    0.14380    0.74870    1.000
    C73      C        0.66810    0.16189    0.67119    1.000
    C74      C        0.69190    0.15398    0.60050    1.000
    H49      H        0.77350    0.16930    0.57940    1.000
    C75      C        0.59580    0.12361    0.56106    1.000
    H50      H        0.61240    0.11920    0.51330    1.000
    C76      C        0.77770    0.19317    0.71449    1.000
    C77      C        0.21610    0.94478    0.57567    1.000
    C78      C        0.30110    0.92945    0.63760    1.000
    H51      H        0.38240    0.94760    0.65900    1.000
    C79      C        0.26640    0.88766    0.66780    1.000
    H52      H        0.32420    0.87820    0.70930    1.000
    C80      C        0.14700    0.85981    0.63709    1.000
    C81      C        0.06270    0.87438    0.57493    1.000
    H53      H        0.98380    0.85570    0.55290    1.000
    C82      C        0.09530    0.91665    0.54547    1.000
    H54      H        0.03520    0.92630    0.50470    1.000
    C83      C        0.10680    0.81541    0.67024    1.000
    C84      C        0.11860    0.04836    0.13068    1.000
    Ni3      Ni       0.97903    0.25646    0.27612    1.000
    N13      N        0.78960    0.48475    0.54591    1.000
    N14      N        0.57960    0.44247    0.56602    1.000
    N15      N        0.17340    0.27233    0.73525    1.000
    N16      N        0.31420    0.31097    0.66178    1.000
    N17      N        0.10420    0.30850    0.32450    1.000
    N18      N        0.23640    0.34639    0.41075    1.000
    O13      O        0.12760    0.48786    0.59468    1.000
    O14      O        0.06720    0.41381    0.60742    1.000
    O15      O        0.89600    0.28960    0.18591    1.000
    O16      O        0.75480    0.29794    0.27826    1.000
    O17      O        0.01780    0.71340    0.13558    1.000
    O18      O        0.15780    0.69387    0.23342    1.000
    C85      C        0.40170    0.39556    0.49000    1.000
    H55      H        0.41800    0.41510    0.45220    1.000
    C86      C        0.47200    0.40462    0.55687    1.000
    C87      C        0.44650    0.37687    0.61456    1.000
    H56      H        0.49410    0.38330    0.65960    1.000
    C88      C        0.34780    0.33934    0.60263    1.000
    C89      C        0.27870    0.32837    0.53636    1.000
    H57      H        0.21490    0.30240    0.52970    1.000
    C90      C        0.30610    0.35692    0.47977    1.000
    C91      C        0.68880    0.45373    0.51965    1.000
    H58      H        0.69200    0.44100    0.47460    1.000
    C92      C        0.74360    0.49394    0.61280    1.000
    H59      H        0.79400    0.51480    0.64440    1.000
    C93      C        0.61490    0.46834    0.62600    1.000
    H60      H        0.56100    0.46820    0.66740    1.000
    C94      C        0.16810    0.29587    0.67590    1.000
    H61      H        0.07490    0.30140    0.64710    1.000
    C95      C        0.42040    0.29576    0.71600    1.000
    H62      H        0.53040    0.30090    0.72110    1.000
    C96      C        0.33190    0.27188    0.76020    1.000
    H63      H        0.37240    0.25720    0.80150    1.000
    C97      C        0.14990    0.30944    0.39183    1.000
    H64      H        0.12470    0.28660    0.42360    1.000
    C98      C        0.16120    0.34772    0.29820    1.000
    H65      H        0.14720    0.35690    0.25090    1.000
    C99      C        0.24060    0.37124    0.34990    1.000
    H66      H        0.29000    0.39960    0.34530    1.000
    C100     C        0.17320    0.45493    0.70860    1.000
    C101     C        0.20890    0.49718    0.73937    1.000
    H67      H        0.20690    0.52340    0.71120    1.000
    C102     C        0.24770    0.50074    0.81201    1.000
    H68      H        0.27270    0.52930    0.83180    1.000
    C103     C        0.24980    0.46231    0.85569    1.000
    C104     C        0.22040    0.42007    0.82387    1.000
    H69      H        0.22670    0.39360    0.85160    1.000
    C105     C        0.18180    0.41653    0.75162    1.000
    H70      H        0.16120    0.38780    0.73160    1.000
    C106     C        0.28050    0.46668    0.93407    1.000
    C107     C        0.23310    0.50629    0.96839    1.000
    H71      H        0.18340    0.52980    0.94160    1.000
    C108     C        0.25840    0.51158    0.04174    1.000
    C109     C        0.33210    0.47583    0.08085    1.000
    H72      H        0.34840    0.47870    0.13000    1.000
    C110     C        0.38170    0.43618    0.04845    1.000
    C111     C        0.35420    0.43181    0.97494    1.000
    H73      H        0.38560    0.40510    0.95280    1.000
    C112     C        0.47450    0.40067    0.09072    1.000
    C113     C        0.44960    0.39218    0.16170    1.000
    H74      H        0.36760    0.40740    0.18280    1.000
    C114     C        0.54570    0.36135    0.20128    1.000
    H75      H        0.52780    0.35620    0.24870    1.000
    C115     C        0.66810    0.33811    0.17119    1.000
    C116     C        0.69190    0.34602    0.10050    1.000
    H76      H        0.77350    0.33070    0.07940    1.000
    C117     C        0.59580    0.37639    0.06106    1.000
    H77      H        0.61240    0.38080    0.01330    1.000
    C118     C        0.77770    0.30683    0.21449    1.000
    C119     C        0.21610    0.55522    0.07567    1.000
    C120     C        0.30110    0.57055    0.13760    1.000
    H78      H        0.38240    0.55240    0.15900    1.000
    C121     C        0.26640    0.61234    0.16780    1.000
    H79      H        0.32420    0.62180    0.20930    1.000
    C122     C        0.14700    0.64019    0.13709    1.000
    C123     C        0.06270    0.62562    0.07493    1.000
    H80      H        0.98380    0.64430    0.05290    1.000
    C124     C        0.09530    0.58335    0.04547    1.000
    H81      H        0.03520    0.57370    0.00470    1.000
    C125     C        0.10680    0.68459    0.17024    1.000
    C126     C        0.11860    0.45164    0.63068    1.000
    Ni4      Ni       0.02097    0.75646    0.22388    1.000
    N19      N        0.21040    0.98475    0.95409    1.000
    N20      N        0.42040    0.94247    0.93398    1.000
    N21      N        0.82660    0.77233    0.76475    1.000
    N22      N        0.68580    0.81097    0.83822    1.000
    N23      N        0.89580    0.80850    0.17550    1.000
    N24      N        0.76360    0.84639    0.08925    1.000
    O19      O        0.87240    0.98786    0.90532    1.000
    O20      O        0.93280    0.91381    0.89258    1.000
    O21      O        0.10400    0.78960    0.31409    1.000
    O22      O        0.24520    0.79794    0.22174    1.000
    O23      O        0.98220    0.21340    0.36442    1.000
    O24      O        0.84220    0.19387    0.26658    1.000
    C127     C        0.59830    0.89556    0.01000    1.000
    H82      H        0.58200    0.91510    0.04780    1.000
    C128     C        0.52800    0.90462    0.94313    1.000
    C129     C        0.55350    0.87687    0.88544    1.000
    H83      H        0.50590    0.88330    0.84040    1.000
    C130     C        0.65220    0.83934    0.89737    1.000
    C131     C        0.72130    0.82837    0.96364    1.000
    H84      H        0.78510    0.80240    0.97030    1.000
    C132     C        0.69390    0.85692    0.02023    1.000
    C133     C        0.31120    0.95373    0.98035    1.000
    H85      H        0.30800    0.94100    0.02540    1.000
    C134     C        0.25640    0.99394    0.88720    1.000
    H86      H        0.20600    0.01480    0.85560    1.000
    C135     C        0.38510    0.96834    0.87400    1.000
    H87      H        0.43900    0.96820    0.83260    1.000
    C136     C        0.83190    0.79587    0.82410    1.000
    H88      H        0.92510    0.80140    0.85290    1.000
    C137     C        0.57960    0.79576    0.78400    1.000
    H89      H        0.46960    0.80090    0.77890    1.000
    C138     C        0.66810    0.77188    0.73980    1.000
    H90      H        0.62760    0.75720    0.69850    1.000
    C139     C        0.85010    0.80944    0.10817    1.000
    H91      H        0.87530    0.78660    0.07640    1.000
    C140     C        0.83880    0.84772    0.20180    1.000
    H92      H        0.85280    0.85690    0.24910    1.000
    C141     C        0.75940    0.87124    0.15010    1.000
    H93      H        0.71000    0.89960    0.15470    1.000
    C142     C        0.82680    0.95493    0.79140    1.000
    C143     C        0.79110    0.99718    0.76063    1.000
    H94      H        0.79310    0.02340    0.78880    1.000
    C144     C        0.75230    0.00074    0.68799    1.000
    H95      H        0.72730    0.02930    0.66820    1.000
    C145     C        0.75020    0.96231    0.64431    1.000
    C146     C        0.77960    0.92007    0.67613    1.000
    H96      H        0.77330    0.89360    0.64840    1.000
    C147     C        0.81820    0.91653    0.74838    1.000
    H97      H        0.83880    0.88780    0.76840    1.000
    C148     C        0.71950    0.96668    0.56593    1.000
    C149     C        0.76690    0.00629    0.53161    1.000
    H98      H        0.81660    0.02980    0.55840    1.000
    C150     C        0.74160    0.01158    0.45826    1.000
    C151     C        0.66790    0.97583    0.41915    1.000
    H99      H        0.65160    0.97870    0.37000    1.000
    C152     C        0.61830    0.93618    0.45155    1.000
    C153     C        0.64580    0.93181    0.52506    1.000
    H100     H        0.61440    0.90510    0.54720    1.000
    C154     C        0.52550    0.90067    0.40928    1.000
    C155     C        0.55040    0.89218    0.33830    1.000
    H101     H        0.63240    0.90740    0.31720    1.000
    C156     C        0.45430    0.86135    0.29872    1.000
    H102     H        0.47220    0.85620    0.25130    1.000
    C157     C        0.33190    0.83811    0.32881    1.000
    C158     C        0.30810    0.84602    0.39950    1.000
    H103     H        0.22650    0.83070    0.42060    1.000
    C159     C        0.40420    0.87639    0.43894    1.000
    H104     H        0.38760    0.88080    0.48670    1.000
    C160     C        0.22230    0.80683    0.28551    1.000
    C161     C        0.78390    0.05522    0.42433    1.000
    C162     C        0.69890    0.07055    0.36240    1.000
    H105     H        0.61760    0.05240    0.34100    1.000
    C163     C        0.73360    0.11234    0.33220    1.000
    H106     H        0.67580    0.12180    0.29070    1.000
    C164     C        0.85300    0.14019    0.36291    1.000
    C165     C        0.93730    0.12562    0.42507    1.000
    H107     H        0.01620    0.14430    0.44710    1.000
    C166     C        0.90470    0.08335    0.45453    1.000
    H108     H        0.96480    0.07370    0.49530    1.000
    C167     C        0.89320    0.18459    0.32976    1.000
    C168     C        0.88140    0.95164    0.86932    1.000
    Ni5      Ni       0.00000    0.50000    0.50000    1.000
    Ni6      Ni       0.00000    0.00000    0.00000    1.000
