# CIF file generated by openbabel 3.1.0, see https://openbabel.org
data_I
_chemical_name_common 'image0'
_cell_length_a 31.4077
_cell_length_b 31.4077
_cell_length_c 15.0945
_cell_angle_alpha 90
_cell_angle_beta 90
_cell_angle_gamma 120
_space_group_name_H-M_alt 'P 1'
_space_group_name_Hall 'P 1'
loop_
    _symmetry_equiv_pos_as_xyz
    x,y,z
loop_
    _atom_site_label
    _atom_site_type_symbol
    _atom_site_fract_x
    _atom_site_fract_y
    _atom_site_fract_z
    _atom_site_occupancy
    Zn1      Zn       0.06099    0.73073    0.48688    1.000
    C1       C        0.14877    0.73931    0.54540    1.000
    C2       C        0.18614    0.72238    0.55090    1.000
    C3       C        0.17635    0.67761    0.51330    1.000
    H1       H        0.14600    0.65720    0.48700    1.000
    C4       C        0.21152    0.66387    0.51530    1.000
    H2       H        0.20440    0.63390    0.49060    1.000
    C5       C        0.25817    0.69405    0.55390    1.000
    C6       C        0.26610    0.73749    0.59440    1.000
    H3       H        0.29590    0.75750    0.62270    1.000
    C7       C        0.23070    0.75147    0.59330    1.000
    H4       H        0.23680    0.78040    0.62110    1.000
    C8       C        0.29656    0.67981    0.55200    1.000
    C9       C        0.34646    0.71604    0.55160    1.000
    H5       H        0.35520    0.74900    0.55100    1.000
    C10      C        0.07470    0.81930    0.43340    1.000
    C11      C        0.05795    0.85585    0.41670    1.000
    C12      C        0.08423    0.89555    0.35930    1.000
    H6       H        0.11200    0.89910    0.33060    1.000
    C13      C        0.06950    0.92930    0.34490    1.000
    H7       H        0.08810    0.95600    0.30800    1.000
    C14      C        0.02707    0.92456    0.38410    1.000
    C15      C        0.00002    0.88435    0.43930    1.000
    H8       H        0.97140    0.88020    0.46580    1.000
    C16      C        0.01507    0.85032    0.45560    1.000
    H9       H        0.99650    0.82370    0.49260    1.000
    C17      C        0.01307    0.96325    0.37450    1.000
    C18      C        0.96348    0.95084    0.37400    1.000
    H10      H        0.93910    0.91790    0.37340    1.000
    C19      C        0.04252    0.67070    0.31800    1.000
    O1       O        0.10882    0.82070    0.39170    1.000
    O2       O        0.05124    0.78729    0.49260    1.000
    O3       O        0.15096    0.77167    0.59460    1.000
    O4       O        0.11538    0.71742    0.48660    1.000
    N1       N        0.97160    0.65730    0.27980    1.000
    N2       N        0.00779    0.64786    0.25700    1.000
    N3       N        0.98413    0.68470    0.34930    1.000
    N4       N        0.08670    0.67350    0.31780    1.000
    H11      H        0.09420    0.65990    0.27590    1.000
    H12      H        0.10740    0.68890    0.35960    1.000
    N5       N        0.02896    0.69370    0.37630    1.000
    Zn2      Zn       0.72766    0.06406    0.82021    1.000
    C20      C        0.81544    0.07264    0.87873    1.000
    C21      C        0.85281    0.05571    0.88423    1.000
    C22      C        0.84302    0.01094    0.84663    1.000
    H13      H        0.81267    0.99053    0.82033    1.000
    C23      C        0.87819    0.99720    0.84863    1.000
    H14      H        0.87107    0.96723    0.82393    1.000
    C24      C        0.92484    0.02738    0.88723    1.000
    C25      C        0.93277    0.07082    0.92773    1.000
    H15      H        0.96257    0.09083    0.95603    1.000
    C26      C        0.89737    0.08480    0.92663    1.000
    H16      H        0.90347    0.11373    0.95443    1.000
    C27      C        0.96323    0.01314    0.88533    1.000
    C28      C        0.01313    0.04937    0.88493    1.000
    H17      H        0.02187    0.08233    0.88433    1.000
    C29      C        0.74137    0.15263    0.76673    1.000
    C30      C        0.72462    0.18918    0.75003    1.000
    C31      C        0.75090    0.22888    0.69263    1.000
    H18      H        0.77867    0.23243    0.66393    1.000
    C32      C        0.73617    0.26263    0.67823    1.000
    H19      H        0.75477    0.28933    0.64133    1.000
    C33      C        0.69374    0.25789    0.71743    1.000
    C34      C        0.66669    0.21768    0.77263    1.000
    H20      H        0.63807    0.21353    0.79913    1.000
    C35      C        0.68174    0.18365    0.78893    1.000
    H21      H        0.66317    0.15703    0.82593    1.000
    C36      C        0.67974    0.29658    0.70783    1.000
    C37      C        0.63015    0.28417    0.70733    1.000
    H22      H        0.60577    0.25123    0.70673    1.000
    C38      C        0.70919    0.00403    0.65133    1.000
    O5       O        0.77549    0.15403    0.72503    1.000
    O6       O        0.71791    0.12062    0.82593    1.000
    O7       O        0.81763    0.10500    0.92793    1.000
    O8       O        0.78205    0.05075    0.81993    1.000
    N6       N        0.63827    0.99063    0.61313    1.000
    N7       N        0.67446    0.98119    0.59033    1.000
    N8       N        0.65080    0.01803    0.68263    1.000
    N9       N        0.75337    0.00683    0.65113    1.000
    H23      H        0.76087    0.99323    0.60923    1.000
    H24      H        0.77407    0.02223    0.69293    1.000
    N10      N        0.69563    0.02703    0.70963    1.000
    Zn3      Zn       0.39432    0.39740    0.15355    1.000
    C39      C        0.48210    0.40598    0.21207    1.000
    C40      C        0.51947    0.38905    0.21757    1.000
    C41      C        0.50968    0.34428    0.17997    1.000
    H25      H        0.47933    0.32387    0.15367    1.000
    C42      C        0.54485    0.33054    0.18197    1.000
    H26      H        0.53773    0.30057    0.15727    1.000
    C43      C        0.59150    0.36072    0.22057    1.000
    C44      C        0.59943    0.40416    0.26107    1.000
    H27      H        0.62923    0.42417    0.28937    1.000
    C45      C        0.56403    0.41814    0.25997    1.000
    H28      H        0.57013    0.44707    0.28777    1.000
    C46      C        0.62989    0.34648    0.21867    1.000
    C47      C        0.67979    0.38271    0.21827    1.000
    H29      H        0.68853    0.41567    0.21767    1.000
    C48      C        0.40803    0.48597    0.10007    1.000
    C49      C        0.39128    0.52252    0.08337    1.000
    C50      C        0.41756    0.56222    0.02597    1.000
    H30      H        0.44533    0.56577    0.99727    1.000
    C51      C        0.40283    0.59597    0.01157    1.000
    H31      H        0.42143    0.62267    0.97467    1.000
    C52      C        0.36040    0.59123    0.05077    1.000
    C53      C        0.33335    0.55102    0.10597    1.000
    H32      H        0.30473    0.54687    0.13247    1.000
    C54      C        0.34840    0.51699    0.12227    1.000
    H33      H        0.32983    0.49037    0.15927    1.000
    C55      C        0.34640    0.62992    0.04117    1.000
    C56      C        0.29681    0.61751    0.04067    1.000
    H34      H        0.27243    0.58457    0.04007    1.000
    C57      C        0.37585    0.33737    0.98467    1.000
    O9       O        0.44215    0.48737    0.05837    1.000
    O10      O        0.38457    0.45396    0.15927    1.000
    O11      O        0.48429    0.43834    0.26127    1.000
    O12      O        0.44871    0.38409    0.15327    1.000
    N11      N        0.30493    0.32397    0.94647    1.000
    N12      N        0.34112    0.31453    0.92367    1.000
    N13      N        0.31746    0.35137    0.01597    1.000
    N14      N        0.42003    0.34017    0.98447    1.000
    H35      H        0.42753    0.32657    0.94257    1.000
    H36      H        0.44073    0.35557    0.02627    1.000
    N15      N        0.36229    0.36037    0.04297    1.000
    Zn4      Zn       0.26927    0.33026    0.48688    1.000
    C58      C        0.26069    0.40946    0.54540    1.000
    C59      C        0.27762    0.46376    0.55090    1.000
    C60      C        0.32239    0.49874    0.51330    1.000
    H37      H        0.34280    0.48880    0.48700    1.000
    C61      C        0.33613    0.54765    0.51530    1.000
    H38      H        0.36610    0.57050    0.49060    1.000
    C62      C        0.30595    0.56412    0.55390    1.000
    C63      C        0.26251    0.52861    0.59440    1.000
    H39      H        0.24250    0.53840    0.62270    1.000
    C64      C        0.24853    0.47923    0.59330    1.000
    H40      H        0.21960    0.45640    0.62110    1.000
    C65      C        0.32019    0.61675    0.55200    1.000
    C66      C        0.28396    0.63042    0.55160    1.000
    H41      H        0.25100    0.60620    0.55100    1.000
    C67      C        0.18070    0.25540    0.43340    1.000
    C68      C        0.14415    0.20210    0.41670    1.000
    C69      C        0.10445    0.18868    0.35930    1.000
    H42      H        0.10090    0.21290    0.33060    1.000
    C70      C        0.07070    0.14020    0.34490    1.000
    H43      H        0.04400    0.13210    0.30800    1.000
    C71      C        0.07544    0.10251    0.38410    1.000
    C72      C        0.11565    0.11567    0.43930    1.000
    H44      H        0.11980    0.09120    0.46580    1.000
    C73      C        0.14968    0.16475    0.45560    1.000
    H45      H        0.17630    0.17280    0.49260    1.000
    C74      C        0.03675    0.04982    0.37450    1.000
    C75      C        0.04916    0.01264    0.37400    1.000
    H46      H        0.08210    0.02120    0.37340    1.000
    C76      C        0.32930    0.37182    0.31800    1.000
    O13      O        0.17930    0.28812    0.39170    1.000
    O14      O        0.21271    0.26395    0.49260    1.000
    O15      O        0.22833    0.37929    0.59460    1.000
    O16      O        0.28258    0.39796    0.48660    1.000
    N16      N        0.34270    0.31430    0.27980    1.000
    N17      N        0.35214    0.35993    0.25700    1.000
    N18      N        0.31530    0.29943    0.34930    1.000
    N19      N        0.32650    0.41320    0.31780    1.000
    H47      H        0.34010    0.43430    0.27590    1.000
    H48      H        0.31110    0.41850    0.35960    1.000
    N20      N        0.30630    0.33526    0.37630    1.000
    Zn5      Zn       0.93594    0.66359    0.82021    1.000
    C77      C        0.92736    0.74279    0.87873    1.000
    C78      C        0.94429    0.79709    0.88423    1.000
    C79      C        0.98906    0.83207    0.84663    1.000
    H49      H        0.00947    0.82213    0.82033    1.000
    C80      C        0.00280    0.88098    0.84863    1.000
    H50      H        0.03277    0.90383    0.82393    1.000
    C81      C        0.97262    0.89745    0.88723    1.000
    C82      C        0.92918    0.86194    0.92773    1.000
    H51      H        0.90917    0.87173    0.95603    1.000
    C83      C        0.91520    0.81256    0.92663    1.000
    H52      H        0.88627    0.78973    0.95443    1.000
    C84      C        0.98686    0.95008    0.88533    1.000
    C85      C        0.95063    0.96375    0.88493    1.000
    H53      H        0.91767    0.93953    0.88433    1.000
    C86      C        0.84737    0.58873    0.76673    1.000
    C87      C        0.81082    0.53543    0.75003    1.000
    C88      C        0.77112    0.52201    0.69263    1.000
    H54      H        0.76757    0.54623    0.66393    1.000
    C89      C        0.73737    0.47353    0.67823    1.000
    H55      H        0.71067    0.46543    0.64133    1.000
    C90      C        0.74211    0.43584    0.71743    1.000
    C91      C        0.78232    0.44900    0.77263    1.000
    H56      H        0.78647    0.42453    0.79913    1.000
    C92      C        0.81635    0.49808    0.78893    1.000
    H57      H        0.84297    0.50613    0.82593    1.000
    C93      C        0.70342    0.38315    0.70783    1.000
    C94      C        0.71583    0.34597    0.70733    1.000
    H58      H        0.74877    0.35453    0.70673    1.000
    C95      C        0.99597    0.70515    0.65133    1.000
    O17      O        0.84597    0.62145    0.72503    1.000
    O18      O        0.87938    0.59728    0.82593    1.000
    O19      O        0.89500    0.71262    0.92793    1.000
    O20      O        0.94925    0.73129    0.81993    1.000
    N21      N        0.00937    0.64763    0.61313    1.000
    N22      N        0.01881    0.69326    0.59033    1.000
    N23      N        0.98197    0.63276    0.68263    1.000
    N24      N        0.99317    0.74653    0.65113    1.000
    H59      H        0.00677    0.76763    0.60923    1.000
    H60      H        0.97777    0.75183    0.69293    1.000
    N25      N        0.97297    0.66859    0.70963    1.000
    Zn6      Zn       0.60260    0.99693    0.15355    1.000
    C96      C        0.59402    0.07613    0.21207    1.000
    C97      C        0.61095    0.13043    0.21757    1.000
    C98      C        0.65572    0.16541    0.17997    1.000
    H61      H        0.67613    0.15547    0.15367    1.000
    C99      C        0.66946    0.21432    0.18197    1.000
    H62      H        0.69943    0.23717    0.15727    1.000
    C100     C        0.63928    0.23079    0.22057    1.000
    C101     C        0.59584    0.19528    0.26107    1.000
    H63      H        0.57583    0.20507    0.28937    1.000
    C102     C        0.58186    0.14590    0.25997    1.000
    H64      H        0.55293    0.12307    0.28777    1.000
    C103     C        0.65352    0.28342    0.21867    1.000
    C104     C        0.61729    0.29709    0.21827    1.000
    H65      H        0.58433    0.27287    0.21767    1.000
    C105     C        0.51403    0.92207    0.10007    1.000
    C106     C        0.47748    0.86877    0.08337    1.000
    C107     C        0.43778    0.85535    0.02597    1.000
    H66      H        0.43423    0.87957    0.99727    1.000
    C108     C        0.40403    0.80687    0.01157    1.000
    H67      H        0.37733    0.79877    0.97467    1.000
    C109     C        0.40877    0.76918    0.05077    1.000
    C110     C        0.44898    0.78234    0.10597    1.000
    H68      H        0.45313    0.75787    0.13247    1.000
    C111     C        0.48301    0.83142    0.12227    1.000
    H69      H        0.50963    0.83947    0.15927    1.000
    C112     C        0.37008    0.71649    0.04117    1.000
    C113     C        0.38249    0.67931    0.04067    1.000
    H70      H        0.41543    0.68787    0.04007    1.000
    C114     C        0.66263    0.03849    0.98467    1.000
    O21      O        0.51263    0.95479    0.05837    1.000
    O22      O        0.54604    0.93062    0.15927    1.000
    O23      O        0.56166    0.04596    0.26127    1.000
    O24      O        0.61591    0.06463    0.15327    1.000
    N26      N        0.67603    0.98097    0.94647    1.000
    N27      N        0.68547    0.02660    0.92367    1.000
    N28      N        0.64863    0.96610    0.01597    1.000
    N29      N        0.65983    0.07987    0.98447    1.000
    H71      H        0.67343    0.10097    0.94257    1.000
    H72      H        0.64443    0.08517    0.02627    1.000
    N30      N        0.63963    0.00193    0.04297    1.000
    Zn7      Zn       0.66974    0.93901    0.48688    1.000
    C115     C        0.59054    0.85123    0.54540    1.000
    C116     C        0.53624    0.81386    0.55090    1.000
    C117     C        0.50126    0.82365    0.51330    1.000
    H73      H        0.51120    0.85400    0.48700    1.000
    C118     C        0.45235    0.78848    0.51530    1.000
    H74      H        0.42950    0.79560    0.49060    1.000
    C119     C        0.43588    0.74183    0.55390    1.000
    C120     C        0.47139    0.73390    0.59440    1.000
    H75      H        0.46160    0.70410    0.62270    1.000
    C121     C        0.52077    0.76930    0.59330    1.000
    H76      H        0.54360    0.76320    0.62110    1.000
    C122     C        0.38325    0.70344    0.55200    1.000
    C123     C        0.36958    0.65354    0.55160    1.000
    H77      H        0.39380    0.64480    0.55100    1.000
    C124     C        0.74460    0.92530    0.43340    1.000
    C125     C        0.79790    0.94205    0.41670    1.000
    C126     C        0.81132    0.91577    0.35930    1.000
    H78      H        0.78710    0.88800    0.33060    1.000
    C127     C        0.85980    0.93050    0.34490    1.000
    H79      H        0.86790    0.91190    0.30800    1.000
    C128     C        0.89749    0.97293    0.38410    1.000
    C129     C        0.88433    0.99998    0.43930    1.000
    H80      H        0.90880    0.02860    0.46580    1.000
    C130     C        0.83525    0.98493    0.45560    1.000
    H81      H        0.82720    0.00350    0.49260    1.000
    C131     C        0.95018    0.98693    0.37450    1.000
    C132     C        0.98736    0.03652    0.37400    1.000
    H82      H        0.97880    0.06090    0.37340    1.000
    C133     C        0.62818    0.95748    0.31800    1.000
    O25      O        0.71188    0.89118    0.39170    1.000
    O26      O        0.73605    0.94876    0.49260    1.000
    O27      O        0.62071    0.84904    0.59460    1.000
    O28      O        0.60204    0.88462    0.48660    1.000
    N31      N        0.68570    0.02840    0.27980    1.000
    N32      N        0.64007    0.99221    0.25700    1.000
    N33      N        0.70057    0.01587    0.34930    1.000
    N34      N        0.58680    0.91330    0.31780    1.000
    H83      H        0.56570    0.90580    0.27590    1.000
    H84      H        0.58150    0.89260    0.35960    1.000
    N35      N        0.66474    0.97104    0.37630    1.000
    Zn8      Zn       0.33641    0.27234    0.82021    1.000
    C134     C        0.25721    0.18456    0.87873    1.000
    C135     C        0.20291    0.14719    0.88423    1.000
    C136     C        0.16793    0.15698    0.84663    1.000
    H85      H        0.17787    0.18733    0.82033    1.000
    C137     C        0.11902    0.12181    0.84863    1.000
    H86      H        0.09617    0.12893    0.82393    1.000
    C138     C        0.10255    0.07516    0.88723    1.000
    C139     C        0.13806    0.06723    0.92773    1.000
    H87      H        0.12827    0.03743    0.95603    1.000
    C140     C        0.18744    0.10263    0.92663    1.000
    H88      H        0.21027    0.09653    0.95443    1.000
    C141     C        0.04992    0.03677    0.88533    1.000
    C142     C        0.03625    0.98687    0.88493    1.000
    H89      H        0.06047    0.97813    0.88433    1.000
    C143     C        0.41127    0.25863    0.76673    1.000
    C144     C        0.46457    0.27538    0.75003    1.000
    C145     C        0.47799    0.24910    0.69263    1.000
    H90      H        0.45377    0.22133    0.66393    1.000
    C146     C        0.52647    0.26383    0.67823    1.000
    H91      H        0.53457    0.24523    0.64133    1.000
    C147     C        0.56416    0.30626    0.71743    1.000
    C148     C        0.55100    0.33331    0.77263    1.000
    H92      H        0.57547    0.36193    0.79913    1.000
    C149     C        0.50192    0.31826    0.78893    1.000
    H93      H        0.49387    0.33683    0.82593    1.000
    C150     C        0.61685    0.32026    0.70783    1.000
    C151     C        0.65403    0.36985    0.70733    1.000
    H94      H        0.64547    0.39423    0.70673    1.000
    C152     C        0.29485    0.29081    0.65133    1.000
    O29      O        0.37855    0.22451    0.72503    1.000
    O30      O        0.40272    0.28209    0.82593    1.000
    O31      O        0.28738    0.18237    0.92793    1.000
    O32      O        0.26871    0.21795    0.81993    1.000
    N36      N        0.35237    0.36173    0.61313    1.000
    N37      N        0.30674    0.32554    0.59033    1.000
    N38      N        0.36724    0.34920    0.68263    1.000
    N39      N        0.25347    0.24663    0.65113    1.000
    H95      H        0.23237    0.23913    0.60923    1.000
    H96      H        0.24817    0.22593    0.69293    1.000
    N40      N        0.33141    0.30437    0.70963    1.000
    Zn9      Zn       0.00307    0.60568    0.15355    1.000
    C153     C        0.92387    0.51790    0.21207    1.000
    C154     C        0.86957    0.48053    0.21757    1.000
    C155     C        0.83459    0.49032    0.17997    1.000
    H97      H        0.84453    0.52067    0.15367    1.000
    C156     C        0.78568    0.45515    0.18197    1.000
    H98      H        0.76283    0.46227    0.15727    1.000
    C157     C        0.76921    0.40850    0.22057    1.000
    C158     C        0.80472    0.40057    0.26107    1.000
    H99      H        0.79493    0.37077    0.28937    1.000
    C159     C        0.85410    0.43597    0.25997    1.000
    H100     H        0.87693    0.42987    0.28777    1.000
    C160     C        0.71658    0.37011    0.21867    1.000
    C161     C        0.70291    0.32021    0.21827    1.000
    H101     H        0.72713    0.31147    0.21767    1.000
    C162     C        0.07793    0.59197    0.10007    1.000
    C163     C        0.13123    0.60872    0.08337    1.000
    C164     C        0.14465    0.58244    0.02597    1.000
    H102     H        0.12043    0.55467    0.99727    1.000
    C165     C        0.19313    0.59717    0.01157    1.000
    H103     H        0.20123    0.57857    0.97467    1.000
    C166     C        0.23082    0.63960    0.05077    1.000
    C167     C        0.21766    0.66665    0.10597    1.000
    H104     H        0.24213    0.69527    0.13247    1.000
    C168     C        0.16858    0.65160    0.12227    1.000
    H105     H        0.16053    0.67017    0.15927    1.000
    C169     C        0.28351    0.65360    0.04117    1.000
    C170     C        0.32069    0.70319    0.04067    1.000
    H106     H        0.31213    0.72757    0.04007    1.000
    C171     C        0.96151    0.62415    0.98467    1.000
    O33      O        0.04521    0.55785    0.05837    1.000
    O34      O        0.06938    0.61543    0.15927    1.000
    O35      O        0.95404    0.51571    0.26127    1.000
    O36      O        0.93537    0.55129    0.15327    1.000
    N41      N        0.01903    0.69507    0.94647    1.000
    N42      N        0.97340    0.65888    0.92367    1.000
    N43      N        0.03390    0.68254    0.01597    1.000
    N44      N        0.92013    0.57997    0.98447    1.000
    H107     H        0.89903    0.57247    0.94257    1.000
    H108     H        0.91483    0.55927    0.02627    1.000
    N45      N        0.99807    0.63771    0.04297    1.000
    Zn10     Zn       0.93901    0.26927    0.51312    1.000
    C172     C        0.85123    0.26069    0.45460    1.000
    C173     C        0.81386    0.27762    0.44910    1.000
    C174     C        0.82365    0.32239    0.48670    1.000
    H109     H        0.85400    0.34280    0.51300    1.000
    C175     C        0.78848    0.33613    0.48470    1.000
    H110     H        0.79560    0.36610    0.50940    1.000
    C176     C        0.74183    0.30595    0.44610    1.000
    C177     C        0.73390    0.26251    0.40560    1.000
    H111     H        0.70410    0.24250    0.37730    1.000
    C178     C        0.76930    0.24853    0.40670    1.000
    H112     H        0.76320    0.21960    0.37890    1.000
    C179     C        0.70344    0.32019    0.44800    1.000
    C180     C        0.65354    0.28396    0.44840    1.000
    H113     H        0.64480    0.25100    0.44900    1.000
    C181     C        0.92530    0.18070    0.56660    1.000
    C182     C        0.94205    0.14415    0.58330    1.000
    C183     C        0.91577    0.10445    0.64070    1.000
    H114     H        0.88800    0.10090    0.66940    1.000
    C184     C        0.93050    0.07070    0.65510    1.000
    H115     H        0.91190    0.04400    0.69200    1.000
    C185     C        0.97293    0.07544    0.61590    1.000
    C186     C        0.99998    0.11565    0.56070    1.000
    H116     H        0.02860    0.11980    0.53420    1.000
    C187     C        0.98493    0.14968    0.54440    1.000
    H117     H        0.00350    0.17630    0.50740    1.000
    C188     C        0.98693    0.03675    0.62550    1.000
    C189     C        0.03652    0.04916    0.62600    1.000
    H118     H        0.06090    0.08210    0.62660    1.000
    C190     C        0.95748    0.32930    0.68200    1.000
    O37      O        0.89118    0.17930    0.60830    1.000
    O38      O        0.94876    0.21271    0.50740    1.000
    O39      O        0.84904    0.22833    0.40540    1.000
    O40      O        0.88462    0.28258    0.51340    1.000
    N46      N        0.02840    0.34270    0.72020    1.000
    N47      N        0.99221    0.35214    0.74300    1.000
    N48      N        0.01587    0.31530    0.65070    1.000
    N49      N        0.91330    0.32650    0.68220    1.000
    H119     H        0.90580    0.34010    0.72410    1.000
    H120     H        0.89260    0.31110    0.64040    1.000
    N50      N        0.97104    0.30630    0.62370    1.000
    Zn11     Zn       0.60568    0.60260    0.84645    1.000
    C191     C        0.51790    0.59402    0.78793    1.000
    C192     C        0.48053    0.61095    0.78243    1.000
    C193     C        0.49032    0.65572    0.82003    1.000
    H121     H        0.52067    0.67613    0.84633    1.000
    C194     C        0.45515    0.66946    0.81803    1.000
    H122     H        0.46227    0.69943    0.84273    1.000
    C195     C        0.40850    0.63928    0.77943    1.000
    C196     C        0.40057    0.59584    0.73893    1.000
    H123     H        0.37077    0.57583    0.71063    1.000
    C197     C        0.43597    0.58186    0.74003    1.000
    H124     H        0.42987    0.55293    0.71223    1.000
    C198     C        0.37011    0.65352    0.78133    1.000
    C199     C        0.32021    0.61729    0.78173    1.000
    H125     H        0.31147    0.58433    0.78233    1.000
    C200     C        0.59197    0.51403    0.89993    1.000
    C201     C        0.60872    0.47748    0.91663    1.000
    C202     C        0.58244    0.43778    0.97403    1.000
    H126     H        0.55467    0.43423    0.00273    1.000
    C203     C        0.59717    0.40403    0.98843    1.000
    H127     H        0.57857    0.37733    0.02533    1.000
    C204     C        0.63960    0.40877    0.94923    1.000
    C205     C        0.66665    0.44898    0.89403    1.000
    H128     H        0.69527    0.45313    0.86753    1.000
    C206     C        0.65160    0.48301    0.87773    1.000
    H129     H        0.67017    0.50963    0.84073    1.000
    C207     C        0.65360    0.37008    0.95883    1.000
    C208     C        0.70319    0.38249    0.95933    1.000
    H130     H        0.72757    0.41543    0.95993    1.000
    C209     C        0.62415    0.66263    0.01533    1.000
    O41      O        0.55785    0.51263    0.94163    1.000
    O42      O        0.61543    0.54604    0.84073    1.000
    O43      O        0.51571    0.56166    0.73873    1.000
    O44      O        0.55129    0.61591    0.84673    1.000
    N51      N        0.69507    0.67603    0.05353    1.000
    N52      N        0.65888    0.68547    0.07633    1.000
    N53      N        0.68254    0.64863    0.98403    1.000
    N54      N        0.57997    0.65983    0.01553    1.000
    H131     H        0.57247    0.67343    0.05743    1.000
    H132     H        0.55927    0.64443    0.97373    1.000
    N55      N        0.63771    0.63963    0.95703    1.000
    Zn12     Zn       0.27234    0.93594    0.17979    1.000
    C210     C        0.18456    0.92736    0.12127    1.000
    C211     C        0.14719    0.94429    0.11577    1.000
    C212     C        0.15698    0.98906    0.15337    1.000
    H133     H        0.18733    0.00947    0.17967    1.000
    C213     C        0.12181    0.00280    0.15137    1.000
    H134     H        0.12893    0.03277    0.17607    1.000
    C214     C        0.07516    0.97262    0.11277    1.000
    C215     C        0.06723    0.92918    0.07227    1.000
    H135     H        0.03743    0.90917    0.04397    1.000
    C216     C        0.10263    0.91520    0.07337    1.000
    H136     H        0.09653    0.88627    0.04557    1.000
    C217     C        0.03677    0.98686    0.11467    1.000
    C218     C        0.98687    0.95063    0.11507    1.000
    H137     H        0.97813    0.91767    0.11567    1.000
    C219     C        0.25863    0.84737    0.23327    1.000
    C220     C        0.27538    0.81082    0.24997    1.000
    C221     C        0.24910    0.77112    0.30737    1.000
    H138     H        0.22133    0.76757    0.33607    1.000
    C222     C        0.26383    0.73737    0.32177    1.000
    H139     H        0.24523    0.71067    0.35867    1.000
    C223     C        0.30626    0.74211    0.28257    1.000
    C224     C        0.33331    0.78232    0.22737    1.000
    H140     H        0.36193    0.78647    0.20087    1.000
    C225     C        0.31826    0.81635    0.21107    1.000
    H141     H        0.33683    0.84297    0.17407    1.000
    C226     C        0.32026    0.70342    0.29217    1.000
    C227     C        0.36985    0.71583    0.29267    1.000
    H142     H        0.39423    0.74877    0.29327    1.000
    C228     C        0.29081    0.99597    0.34867    1.000
    O45      O        0.22451    0.84597    0.27497    1.000
    O46      O        0.28209    0.87938    0.17407    1.000
    O47      O        0.18237    0.89500    0.07207    1.000
    O48      O        0.21795    0.94925    0.18007    1.000
    N56      N        0.36173    0.00937    0.38687    1.000
    N57      N        0.32554    0.01881    0.40967    1.000
    N58      N        0.34920    0.98197    0.31737    1.000
    N59      N        0.24663    0.99317    0.34887    1.000
    H143     H        0.23913    0.00677    0.39077    1.000
    H144     H        0.22593    0.97777    0.30707    1.000
    N60      N        0.30437    0.97297    0.29037    1.000
    Zn13     Zn       0.73073    0.66974    0.51312    1.000
    C229     C        0.73931    0.59054    0.45460    1.000
    C230     C        0.72238    0.53624    0.44910    1.000
    C231     C        0.67761    0.50126    0.48670    1.000
    H145     H        0.65720    0.51120    0.51300    1.000
    C232     C        0.66387    0.45235    0.48470    1.000
    H146     H        0.63390    0.42950    0.50940    1.000
    C233     C        0.69405    0.43588    0.44610    1.000
    C234     C        0.73749    0.47139    0.40560    1.000
    H147     H        0.75750    0.46160    0.37730    1.000
    C235     C        0.75147    0.52077    0.40670    1.000
    H148     H        0.78040    0.54360    0.37890    1.000
    C236     C        0.67981    0.38325    0.44800    1.000
    C237     C        0.71604    0.36958    0.44840    1.000
    H149     H        0.74900    0.39380    0.44900    1.000
    C238     C        0.81930    0.74460    0.56660    1.000
    C239     C        0.85585    0.79790    0.58330    1.000
    C240     C        0.89555    0.81132    0.64070    1.000
    H150     H        0.89910    0.78710    0.66940    1.000
    C241     C        0.92930    0.85980    0.65510    1.000
    H151     H        0.95600    0.86790    0.69200    1.000
    C242     C        0.92456    0.89749    0.61590    1.000
    C243     C        0.88435    0.88433    0.56070    1.000
    H152     H        0.88020    0.90880    0.53420    1.000
    C244     C        0.85032    0.83525    0.54440    1.000
    H153     H        0.82370    0.82720    0.50740    1.000
    C245     C        0.96325    0.95018    0.62550    1.000
    C246     C        0.95084    0.98736    0.62600    1.000
    H154     H        0.91790    0.97880    0.62660    1.000
    C247     C        0.67070    0.62818    0.68200    1.000
    O49      O        0.82070    0.71188    0.60830    1.000
    O50      O        0.78729    0.73605    0.50740    1.000
    O51      O        0.77167    0.62071    0.40540    1.000
    O52      O        0.71742    0.60204    0.51340    1.000
    N61      N        0.65730    0.68570    0.72020    1.000
    N62      N        0.64786    0.64007    0.74300    1.000
    N63      N        0.68470    0.70057    0.65070    1.000
    N64      N        0.67350    0.58680    0.68220    1.000
    H155     H        0.65990    0.56570    0.72410    1.000
    H156     H        0.68890    0.58150    0.64040    1.000
    N65      N        0.69370    0.66474    0.62370    1.000
    Zn14     Zn       0.39740    0.00307    0.84645    1.000
    C248     C        0.40598    0.92387    0.78793    1.000
    C249     C        0.38905    0.86957    0.78243    1.000
    C250     C        0.34428    0.83459    0.82003    1.000
    H157     H        0.32387    0.84453    0.84633    1.000
    C251     C        0.33054    0.78568    0.81803    1.000
    H158     H        0.30057    0.76283    0.84273    1.000
    C252     C        0.36072    0.76921    0.77943    1.000
    C253     C        0.40416    0.80472    0.73893    1.000
    H159     H        0.42417    0.79493    0.71063    1.000
    C254     C        0.41814    0.85410    0.74003    1.000
    H160     H        0.44707    0.87693    0.71223    1.000
    C255     C        0.34648    0.71658    0.78133    1.000
    C256     C        0.38271    0.70291    0.78173    1.000
    H161     H        0.41567    0.72713    0.78233    1.000
    C257     C        0.48597    0.07793    0.89993    1.000
    C258     C        0.52252    0.13123    0.91663    1.000
    C259     C        0.56222    0.14465    0.97403    1.000
    H162     H        0.56577    0.12043    0.00273    1.000
    C260     C        0.59597    0.19313    0.98843    1.000
    H163     H        0.62267    0.20123    0.02533    1.000
    C261     C        0.59123    0.23082    0.94923    1.000
    C262     C        0.55102    0.21766    0.89403    1.000
    H164     H        0.54687    0.24213    0.86753    1.000
    C263     C        0.51699    0.16858    0.87773    1.000
    H165     H        0.49037    0.16053    0.84073    1.000
    C264     C        0.62992    0.28351    0.95883    1.000
    C265     C        0.61751    0.32069    0.95933    1.000
    H166     H        0.58457    0.31213    0.95993    1.000
    C266     C        0.33737    0.96151    0.01533    1.000
    O53      O        0.48737    0.04521    0.94163    1.000
    O54      O        0.45396    0.06938    0.84073    1.000
    O55      O        0.43834    0.95404    0.73873    1.000
    O56      O        0.38409    0.93537    0.84673    1.000
    N66      N        0.32397    0.01903    0.05353    1.000
    N67      N        0.31453    0.97340    0.07633    1.000
    N68      N        0.35137    0.03390    0.98403    1.000
    N69      N        0.34017    0.92013    0.01553    1.000
    H167     H        0.32657    0.89903    0.05743    1.000
    H168     H        0.35557    0.91483    0.97373    1.000
    N70      N        0.36037    0.99807    0.95703    1.000
    Zn15     Zn       0.06406    0.33641    0.17979    1.000
    C267     C        0.07264    0.25721    0.12127    1.000
    C268     C        0.05571    0.20291    0.11577    1.000
    C269     C        0.01094    0.16793    0.15337    1.000
    H169     H        0.99053    0.17787    0.17967    1.000
    C270     C        0.99720    0.11902    0.15137    1.000
    H170     H        0.96723    0.09617    0.17607    1.000
    C271     C        0.02738    0.10255    0.11277    1.000
    C272     C        0.07082    0.13806    0.07227    1.000
    H171     H        0.09083    0.12827    0.04397    1.000
    C273     C        0.08480    0.18744    0.07337    1.000
    H172     H        0.11373    0.21027    0.04557    1.000
    C274     C        0.01314    0.04992    0.11467    1.000
    C275     C        0.04937    0.03625    0.11507    1.000
    H173     H        0.08233    0.06047    0.11567    1.000
    C276     C        0.15263    0.41127    0.23327    1.000
    C277     C        0.18918    0.46457    0.24997    1.000
    C278     C        0.22888    0.47799    0.30737    1.000
    H174     H        0.23243    0.45377    0.33607    1.000
    C279     C        0.26263    0.52647    0.32177    1.000
    H175     H        0.28933    0.53457    0.35867    1.000
    C280     C        0.25789    0.56416    0.28257    1.000
    C281     C        0.21768    0.55100    0.22737    1.000
    H176     H        0.21353    0.57547    0.20087    1.000
    C282     C        0.18365    0.50192    0.21107    1.000
    H177     H        0.15703    0.49387    0.17407    1.000
    C283     C        0.29658    0.61685    0.29217    1.000
    C284     C        0.28417    0.65403    0.29267    1.000
    H178     H        0.25123    0.64547    0.29327    1.000
    C285     C        0.00403    0.29485    0.34867    1.000
    O57      O        0.15403    0.37855    0.27497    1.000
    O58      O        0.12062    0.40272    0.17407    1.000
    O59      O        0.10500    0.28738    0.07207    1.000
    O60      O        0.05075    0.26871    0.18007    1.000
    N71      N        0.99063    0.35237    0.38687    1.000
    N72      N        0.98119    0.30674    0.40967    1.000
    N73      N        0.01803    0.36724    0.31737    1.000
    N74      N        0.00683    0.25347    0.34887    1.000
    H179     H        0.99323    0.23237    0.39077    1.000
    H180     H        0.02223    0.24817    0.30707    1.000
    N75      N        0.02703    0.33141    0.29037    1.000
    Zn16     Zn       0.33026    0.06099    0.51312    1.000
    C286     C        0.40946    0.14877    0.45460    1.000
    C287     C        0.46376    0.18614    0.44910    1.000
    C288     C        0.49874    0.17635    0.48670    1.000
    H181     H        0.48880    0.14600    0.51300    1.000
    C289     C        0.54765    0.21152    0.48470    1.000
    H182     H        0.57050    0.20440    0.50940    1.000
    C290     C        0.56412    0.25817    0.44610    1.000
    C291     C        0.52861    0.26610    0.40560    1.000
    H183     H        0.53840    0.29590    0.37730    1.000
    C292     C        0.47923    0.23070    0.40670    1.000
    H184     H        0.45640    0.23680    0.37890    1.000
    C293     C        0.61675    0.29656    0.44800    1.000
    C294     C        0.63042    0.34646    0.44840    1.000
    H185     H        0.60620    0.35520    0.44900    1.000
    C295     C        0.25540    0.07470    0.56660    1.000
    C296     C        0.20210    0.05795    0.58330    1.000
    C297     C        0.18868    0.08423    0.64070    1.000
    H186     H        0.21290    0.11200    0.66940    1.000
    C298     C        0.14020    0.06950    0.65510    1.000
    H187     H        0.13210    0.08810    0.69200    1.000
    C299     C        0.10251    0.02707    0.61590    1.000
    C300     C        0.11567    0.00002    0.56070    1.000
    H188     H        0.09120    0.97140    0.53420    1.000
    C301     C        0.16475    0.01507    0.54440    1.000
    H189     H        0.17280    0.99650    0.50740    1.000
    C302     C        0.04982    0.01307    0.62550    1.000
    C303     C        0.01264    0.96348    0.62600    1.000
    H190     H        0.02120    0.93910    0.62660    1.000
    C304     C        0.37182    0.04252    0.68200    1.000
    O61      O        0.28812    0.10882    0.60830    1.000
    O62      O        0.26395    0.05124    0.50740    1.000
    O63      O        0.37929    0.15096    0.40540    1.000
    O64      O        0.39796    0.11538    0.51340    1.000
    N76      N        0.31430    0.97160    0.72020    1.000
    N77      N        0.35993    0.00779    0.74300    1.000
    N78      N        0.29943    0.98413    0.65070    1.000
    N79      N        0.41320    0.08670    0.68220    1.000
    H191     H        0.43430    0.09420    0.72410    1.000
    H192     H        0.41850    0.10740    0.64040    1.000
    N80      N        0.33526    0.02896    0.62370    1.000
    Zn17     Zn       0.99693    0.39432    0.84645    1.000
    C305     C        0.07613    0.48210    0.78793    1.000
    C306     C        0.13043    0.51947    0.78243    1.000
    C307     C        0.16541    0.50968    0.82003    1.000
    H193     H        0.15547    0.47933    0.84633    1.000
    C308     C        0.21432    0.54485    0.81803    1.000
    H194     H        0.23717    0.53773    0.84273    1.000
    C309     C        0.23079    0.59150    0.77943    1.000
    C310     C        0.19528    0.59943    0.73893    1.000
    H195     H        0.20507    0.62923    0.71063    1.000
    C311     C        0.14590    0.56403    0.74003    1.000
    H196     H        0.12307    0.57013    0.71223    1.000
    C312     C        0.28342    0.62989    0.78133    1.000
    C313     C        0.29709    0.67979    0.78173    1.000
    H197     H        0.27287    0.68853    0.78233    1.000
    C314     C        0.92207    0.40803    0.89993    1.000
    C315     C        0.86877    0.39128    0.91663    1.000
    C316     C        0.85535    0.41756    0.97403    1.000
    H198     H        0.87957    0.44533    0.00273    1.000
    C317     C        0.80687    0.40283    0.98843    1.000
    H199     H        0.79877    0.42143    0.02533    1.000
    C318     C        0.76918    0.36040    0.94923    1.000
    C319     C        0.78234    0.33335    0.89403    1.000
    H200     H        0.75787    0.30473    0.86753    1.000
    C320     C        0.83142    0.34840    0.87773    1.000
    H201     H        0.83947    0.32983    0.84073    1.000
    C321     C        0.71649    0.34640    0.95883    1.000
    C322     C        0.67931    0.29681    0.95933    1.000
    H202     H        0.68787    0.27243    0.95993    1.000
    C323     C        0.03849    0.37585    0.01533    1.000
    O65      O        0.95479    0.44215    0.94163    1.000
    O66      O        0.93062    0.38457    0.84073    1.000
    O67      O        0.04596    0.48429    0.73873    1.000
    O68      O        0.06463    0.44871    0.84673    1.000
    N81      N        0.98097    0.30493    0.05353    1.000
    N82      N        0.02660    0.34112    0.07633    1.000
    N83      N        0.96610    0.31746    0.98403    1.000
    N84      N        0.07987    0.42003    0.01553    1.000
    H203     H        0.10097    0.42753    0.05743    1.000
    H204     H        0.08517    0.44073    0.97373    1.000
    N85      N        0.00193    0.36229    0.95703    1.000
    Zn18     Zn       0.66359    0.72766    0.17979    1.000
    C324     C        0.74279    0.81544    0.12127    1.000
    C325     C        0.79709    0.85281    0.11577    1.000
    C326     C        0.83207    0.84302    0.15337    1.000
    H205     H        0.82213    0.81267    0.17967    1.000
    C327     C        0.88098    0.87819    0.15137    1.000
    H206     H        0.90383    0.87107    0.17607    1.000
    C328     C        0.89745    0.92484    0.11277    1.000
    C329     C        0.86194    0.93277    0.07227    1.000
    H207     H        0.87173    0.96257    0.04397    1.000
    C330     C        0.81256    0.89737    0.07337    1.000
    H208     H        0.78973    0.90347    0.04557    1.000
    C331     C        0.95008    0.96323    0.11467    1.000
    C332     C        0.96375    0.01313    0.11507    1.000
    H209     H        0.93953    0.02187    0.11567    1.000
    C333     C        0.58873    0.74137    0.23327    1.000
    C334     C        0.53543    0.72462    0.24997    1.000
    C335     C        0.52201    0.75090    0.30737    1.000
    H210     H        0.54623    0.77867    0.33607    1.000
    C336     C        0.47353    0.73617    0.32177    1.000
    H211     H        0.46543    0.75477    0.35867    1.000
    C337     C        0.43584    0.69374    0.28257    1.000
    C338     C        0.44900    0.66669    0.22737    1.000
    H212     H        0.42453    0.63807    0.20087    1.000
    C339     C        0.49808    0.68174    0.21107    1.000
    H213     H        0.50613    0.66317    0.17407    1.000
    C340     C        0.38315    0.67974    0.29217    1.000
    C341     C        0.34597    0.63015    0.29267    1.000
    H214     H        0.35453    0.60577    0.29327    1.000
    C342     C        0.70515    0.70919    0.34867    1.000
    O69      O        0.62145    0.77549    0.27497    1.000
    O70      O        0.59728    0.71791    0.17407    1.000
    O71      O        0.71262    0.81763    0.07207    1.000
    O72      O        0.73129    0.78205    0.18007    1.000
    N86      N        0.64763    0.63827    0.38687    1.000
    N87      N        0.69326    0.67446    0.40967    1.000
    N88      N        0.63276    0.65080    0.31737    1.000
    N89      N        0.74653    0.75337    0.34887    1.000
    H215     H        0.76763    0.76087    0.39077    1.000
    H216     H        0.75183    0.77407    0.30707    1.000
    N90      N        0.66859    0.69563    0.29037    1.000
