# CIF file generated by openbabel 3.1.0, see https://openbabel.org
data_I
_chemical_name_common 'image0'
_cell_length_a 28.54
_cell_length_b 12.983
_cell_length_c 15.834
_cell_angle_alpha 90
_cell_angle_beta 106.104
_cell_angle_gamma 90
_space_group_name_H-M_alt 'P 1'
_space_group_name_Hall 'P 1'
loop_
    _symmetry_equiv_pos_as_xyz
    x,y,z
loop_
    _atom_site_label
    _atom_site_type_symbol
    _atom_site_fract_x
    _atom_site_fract_y
    _atom_site_fract_z
    _atom_site_occupancy
    Zn1      Zn       0.31811    0.36395    0.08244    1.000
    Zn2      Zn       0.30689    0.10905    0.06775    1.000
    C1       C        0.41965    0.21150    0.00260    1.000
    C2       C        0.43076    0.11540    0.97410    1.000
    H1       H        0.43070    0.05810    0.00930    1.000
    C3       C        0.44184    0.10260    0.89540    1.000
    C4       C        0.44020    0.18680    0.84260    1.000
    H2       H        0.44710    0.17900    0.78890    1.000
    C5       C        0.42860    0.28330    0.86770    1.000
    C6       C        0.41823    0.29450    0.94780    1.000
    H3       H        0.41020    0.35920    0.96470    1.000
    C7       C        0.45540    0.99740    0.86870    1.000
    C8       C        0.42780    0.37400    0.81040    1.000
    C9       C        0.28622    0.25310    0.79740    1.000
    C10      C        0.28840    0.16730    0.74720    1.000
    H4       H        0.28360    0.10220    0.76790    1.000
    C11      C        0.29762    0.17730    0.66600    1.000
    C12      C        0.30391    0.27450    0.63480    1.000
    H5       H        0.30950    0.28160    0.57990    1.000
    C13      C        0.30195    0.36110    0.68450    1.000
    C14      C        0.29273    0.34980    0.76480    1.000
    H6       H        0.29080    0.40800    0.79790    1.000
    C15      C        0.30083    0.08370    0.61270    1.000
    C16      C        0.30967    0.46750    0.65370    1.000
    O1       O        0.45856    0.21160    0.17570    1.000
    O2       O        0.38666    0.32530    0.11760    1.000
    O3       O        0.37623    0.12970    0.11670    1.000
    O4       O        0.44938    0.92010    0.90890    1.000
    O5       O        0.47273    0.99700    0.80420    1.000
    O6       O        0.43356    0.35180    0.73370    1.000
    O7       O        0.42310    0.46050    0.83230    1.000
    O8       O        0.29834    0.33700    0.95501    1.000
    O9       O        0.28850    0.14140    0.94277    1.000
    O10      O        0.21745    0.25830    0.88473    1.000
    O11      O        0.28876    0.99860    0.63900    1.000
    O12      O        0.31544    0.09030    0.54610    1.000
    O13      O        0.31593    0.47870    0.57800    1.000
    O14      O        0.31061    0.54360    0.70140    1.000
    P1       P        0.40904    0.21937    0.10915    1.000
    P2       P        0.27331    0.24619    0.90248    1.000
    H7       H        0.43400    0.40200    0.69800    1.000
    Zn3      Zn       0.81811    0.86395    0.08244    1.000
    Zn4      Zn       0.80689    0.60905    0.06775    1.000
    C17      C        0.91965    0.71150    0.00260    1.000
    C18      C        0.93076    0.61540    0.97410    1.000
    H8       H        0.93070    0.55810    0.00930    1.000
    C19      C        0.94184    0.60260    0.89540    1.000
    C20      C        0.94020    0.68680    0.84260    1.000
    H9       H        0.94710    0.67900    0.78890    1.000
    C21      C        0.92860    0.78330    0.86770    1.000
    C22      C        0.91823    0.79450    0.94780    1.000
    H10      H        0.91020    0.85920    0.96470    1.000
    C23      C        0.95540    0.49740    0.86870    1.000
    C24      C        0.92780    0.87400    0.81040    1.000
    C25      C        0.78622    0.75310    0.79740    1.000
    C26      C        0.78840    0.66730    0.74720    1.000
    H11      H        0.78360    0.60220    0.76790    1.000
    C27      C        0.79762    0.67730    0.66600    1.000
    C28      C        0.80391    0.77450    0.63480    1.000
    H12      H        0.80950    0.78160    0.57990    1.000
    C29      C        0.80195    0.86110    0.68450    1.000
    C30      C        0.79273    0.84980    0.76480    1.000
    H13      H        0.79080    0.90800    0.79790    1.000
    C31      C        0.80083    0.58370    0.61270    1.000
    C32      C        0.80967    0.96750    0.65370    1.000
    O15      O        0.95856    0.71160    0.17570    1.000
    O16      O        0.88666    0.82530    0.11760    1.000
    O17      O        0.87623    0.62970    0.11670    1.000
    O18      O        0.94938    0.42010    0.90890    1.000
    O19      O        0.97273    0.49700    0.80420    1.000
    O20      O        0.93356    0.85180    0.73370    1.000
    O21      O        0.92310    0.96050    0.83230    1.000
    O22      O        0.79834    0.83700    0.95501    1.000
    O23      O        0.78850    0.64140    0.94277    1.000
    O24      O        0.71745    0.75830    0.88473    1.000
    O25      O        0.78876    0.49860    0.63900    1.000
    O26      O        0.81544    0.59030    0.54610    1.000
    O27      O        0.81593    0.97870    0.57800    1.000
    O28      O        0.81061    0.04360    0.70140    1.000
    P3       P        0.90904    0.71937    0.10915    1.000
    P4       P        0.77331    0.74619    0.90248    1.000
    H14      H        0.93400    0.90200    0.69800    1.000
    Zn5      Zn       0.68189    0.36395    0.41756    1.000
    Zn6      Zn       0.69311    0.10905    0.43225    1.000
    C33      C        0.58035    0.21150    0.49740    1.000
    C34      C        0.56924    0.11540    0.52590    1.000
    H15      H        0.56930    0.05810    0.49070    1.000
    C35      C        0.55816    0.10260    0.60460    1.000
    C36      C        0.55980    0.18680    0.65740    1.000
    H16      H        0.55290    0.17900    0.71110    1.000
    C37      C        0.57140    0.28330    0.63230    1.000
    C38      C        0.58177    0.29450    0.55220    1.000
    H17      H        0.58980    0.35920    0.53530    1.000
    C39      C        0.54460    0.99740    0.63130    1.000
    C40      C        0.57220    0.37400    0.68960    1.000
    C41      C        0.71378    0.25310    0.70260    1.000
    C42      C        0.71160    0.16730    0.75280    1.000
    H18      H        0.71640    0.10220    0.73210    1.000
    C43      C        0.70238    0.17730    0.83400    1.000
    C44      C        0.69609    0.27450    0.86520    1.000
    H19      H        0.69050    0.28160    0.92010    1.000
    C45      C        0.69805    0.36110    0.81550    1.000
    C46      C        0.70727    0.34980    0.73520    1.000
    H20      H        0.70920    0.40800    0.70210    1.000
    C47      C        0.69917    0.08370    0.88730    1.000
    C48      C        0.69033    0.46750    0.84630    1.000
    O29      O        0.54144    0.21160    0.32430    1.000
    O30      O        0.61334    0.32530    0.38240    1.000
    O31      O        0.62377    0.12970    0.38330    1.000
    O32      O        0.55062    0.92010    0.59110    1.000
    O33      O        0.52727    0.99700    0.69580    1.000
    O34      O        0.56644    0.35180    0.76630    1.000
    O35      O        0.57690    0.46050    0.66770    1.000
    O36      O        0.70166    0.33700    0.54499    1.000
    O37      O        0.71150    0.14140    0.55723    1.000
    O38      O        0.78255    0.25830    0.61527    1.000
    O39      O        0.71124    0.99860    0.86100    1.000
    O40      O        0.68456    0.09030    0.95390    1.000
    O41      O        0.68407    0.47870    0.92200    1.000
    O42      O        0.68939    0.54360    0.79860    1.000
    P5       P        0.59096    0.21937    0.39085    1.000
    P6       P        0.72669    0.24619    0.59752    1.000
    H21      H        0.56600    0.40200    0.80200    1.000
    Zn7      Zn       0.18189    0.86395    0.41756    1.000
    Zn8      Zn       0.19311    0.60905    0.43225    1.000
    C49      C        0.08035    0.71150    0.49740    1.000
    C50      C        0.06924    0.61540    0.52590    1.000
    H22      H        0.06930    0.55810    0.49070    1.000
    C51      C        0.05816    0.60260    0.60460    1.000
    C52      C        0.05980    0.68680    0.65740    1.000
    H23      H        0.05290    0.67900    0.71110    1.000
    C53      C        0.07140    0.78330    0.63230    1.000
    C54      C        0.08177    0.79450    0.55220    1.000
    H24      H        0.08980    0.85920    0.53530    1.000
    C55      C        0.04460    0.49740    0.63130    1.000
    C56      C        0.07220    0.87400    0.68960    1.000
    C57      C        0.21378    0.75310    0.70260    1.000
    C58      C        0.21160    0.66730    0.75280    1.000
    H25      H        0.21640    0.60220    0.73210    1.000
    C59      C        0.20238    0.67730    0.83400    1.000
    C60      C        0.19609    0.77450    0.86520    1.000
    H26      H        0.19050    0.78160    0.92010    1.000
    C61      C        0.19805    0.86110    0.81550    1.000
    C62      C        0.20727    0.84980    0.73520    1.000
    H27      H        0.20920    0.90800    0.70210    1.000
    C63      C        0.19917    0.58370    0.88730    1.000
    C64      C        0.19033    0.96750    0.84630    1.000
    O43      O        0.04144    0.71160    0.32430    1.000
    O44      O        0.11334    0.82530    0.38240    1.000
    O45      O        0.12377    0.62970    0.38330    1.000
    O46      O        0.05062    0.42010    0.59110    1.000
    O47      O        0.02727    0.49700    0.69580    1.000
    O48      O        0.06644    0.85180    0.76630    1.000
    O49      O        0.07690    0.96050    0.66770    1.000
    O50      O        0.20166    0.83700    0.54499    1.000
    O51      O        0.21150    0.64140    0.55723    1.000
    O52      O        0.28255    0.75830    0.61527    1.000
    O53      O        0.21124    0.49860    0.86100    1.000
    O54      O        0.18456    0.59030    0.95390    1.000
    O55      O        0.18407    0.97870    0.92200    1.000
    O56      O        0.18939    0.04360    0.79860    1.000
    P7       P        0.09096    0.71937    0.39085    1.000
    P8       P        0.22669    0.74619    0.59752    1.000
    H28      H        0.06600    0.90200    0.80200    1.000
    Zn9      Zn       0.68189    0.63605    0.91756    1.000
    Zn10     Zn       0.69311    0.89095    0.93225    1.000
    C65      C        0.58035    0.78850    0.99740    1.000
    C66      C        0.56924    0.88460    0.02590    1.000
    H29      H        0.56930    0.94190    0.99070    1.000
    C67      C        0.55816    0.89740    0.10460    1.000
    C68      C        0.55980    0.81320    0.15740    1.000
    H30      H        0.55290    0.82100    0.21110    1.000
    C69      C        0.57140    0.71670    0.13230    1.000
    C70      C        0.58177    0.70550    0.05220    1.000
    H31      H        0.58980    0.64080    0.03530    1.000
    C71      C        0.54460    0.00260    0.13130    1.000
    C72      C        0.57220    0.62600    0.18960    1.000
    C73      C        0.71378    0.74690    0.20260    1.000
    C74      C        0.71160    0.83270    0.25280    1.000
    H32      H        0.71640    0.89780    0.23210    1.000
    C75      C        0.70238    0.82270    0.33400    1.000
    C76      C        0.69609    0.72550    0.36520    1.000
    H33      H        0.69050    0.71840    0.42010    1.000
    C77      C        0.69805    0.63890    0.31550    1.000
    C78      C        0.70727    0.65020    0.23520    1.000
    H34      H        0.70920    0.59200    0.20210    1.000
    C79      C        0.69917    0.91630    0.38730    1.000
    C80      C        0.69033    0.53250    0.34630    1.000
    O57      O        0.54144    0.78840    0.82430    1.000
    O58      O        0.61334    0.67470    0.88240    1.000
    O59      O        0.62377    0.87030    0.88330    1.000
    O60      O        0.55062    0.07990    0.09110    1.000
    O61      O        0.52727    0.00300    0.19580    1.000
    O62      O        0.56644    0.64820    0.26630    1.000
    O63      O        0.57690    0.53950    0.16770    1.000
    O64      O        0.70166    0.66300    0.04499    1.000
    O65      O        0.71150    0.85860    0.05723    1.000
    O66      O        0.78255    0.74170    0.11527    1.000
    O67      O        0.71124    0.00140    0.36100    1.000
    O68      O        0.68456    0.90970    0.45390    1.000
    O69      O        0.68407    0.52130    0.42200    1.000
    O70      O        0.68939    0.45640    0.29860    1.000
    P9       P        0.59096    0.78063    0.89085    1.000
    P10      P        0.72669    0.75381    0.09752    1.000
    H35      H        0.56600    0.59800    0.30200    1.000
    Zn11     Zn       0.18189    0.13605    0.91756    1.000
    Zn12     Zn       0.19311    0.39095    0.93225    1.000
    C81      C        0.08035    0.28850    0.99740    1.000
    C82      C        0.06924    0.38460    0.02590    1.000
    H36      H        0.06930    0.44190    0.99070    1.000
    C83      C        0.05816    0.39740    0.10460    1.000
    C84      C        0.05980    0.31320    0.15740    1.000
    H37      H        0.05290    0.32100    0.21110    1.000
    C85      C        0.07140    0.21670    0.13230    1.000
    C86      C        0.08177    0.20550    0.05220    1.000
    H38      H        0.08980    0.14080    0.03530    1.000
    C87      C        0.04460    0.50260    0.13130    1.000
    C88      C        0.07220    0.12600    0.18960    1.000
    C89      C        0.21378    0.24690    0.20260    1.000
    C90      C        0.21160    0.33270    0.25280    1.000
    H39      H        0.21640    0.39780    0.23210    1.000
    C91      C        0.20238    0.32270    0.33400    1.000
    C92      C        0.19609    0.22550    0.36520    1.000
    H40      H        0.19050    0.21840    0.42010    1.000
    C93      C        0.19805    0.13890    0.31550    1.000
    C94      C        0.20727    0.15020    0.23520    1.000
    H41      H        0.20920    0.09200    0.20210    1.000
    C95      C        0.19917    0.41630    0.38730    1.000
    C96      C        0.19033    0.03250    0.34630    1.000
    O71      O        0.04144    0.28840    0.82430    1.000
    O72      O        0.11334    0.17470    0.88240    1.000
    O73      O        0.12377    0.37030    0.88330    1.000
    O74      O        0.05062    0.57990    0.09110    1.000
    O75      O        0.02727    0.50300    0.19580    1.000
    O76      O        0.06644    0.14820    0.26630    1.000
    O77      O        0.07690    0.03950    0.16770    1.000
    O78      O        0.20166    0.16300    0.04499    1.000
    O79      O        0.21150    0.35860    0.05723    1.000
    O80      O        0.28255    0.24170    0.11527    1.000
    O81      O        0.21124    0.50140    0.36100    1.000
    O82      O        0.18456    0.40970    0.45390    1.000
    O83      O        0.18407    0.02130    0.42200    1.000
    O84      O        0.18939    0.95640    0.29860    1.000
    P11      P        0.09096    0.28063    0.89085    1.000
    P12      P        0.22669    0.25381    0.09752    1.000
    H42      H        0.06600    0.09800    0.30200    1.000
    Zn13     Zn       0.31811    0.63605    0.58244    1.000
    Zn14     Zn       0.30689    0.89095    0.56775    1.000
    C97      C        0.41965    0.78850    0.50260    1.000
    C98      C        0.43076    0.88460    0.47410    1.000
    H43      H        0.43070    0.94190    0.50930    1.000
    C99      C        0.44184    0.89740    0.39540    1.000
    C100     C        0.44020    0.81320    0.34260    1.000
    H44      H        0.44710    0.82100    0.28890    1.000
    C101     C        0.42860    0.71670    0.36770    1.000
    C102     C        0.41823    0.70550    0.44780    1.000
    H45      H        0.41020    0.64080    0.46470    1.000
    C103     C        0.45540    0.00260    0.36870    1.000
    C104     C        0.42780    0.62600    0.31040    1.000
    C105     C        0.28622    0.74690    0.29740    1.000
    C106     C        0.28840    0.83270    0.24720    1.000
    H46      H        0.28360    0.89780    0.26790    1.000
    C107     C        0.29762    0.82270    0.16600    1.000
    C108     C        0.30391    0.72550    0.13480    1.000
    H47      H        0.30950    0.71840    0.07990    1.000
    C109     C        0.30195    0.63890    0.18450    1.000
    C110     C        0.29273    0.65020    0.26480    1.000
    H48      H        0.29080    0.59200    0.29790    1.000
    C111     C        0.30083    0.91630    0.11270    1.000
    C112     C        0.30967    0.53250    0.15370    1.000
    O85      O        0.45856    0.78840    0.67570    1.000
    O86      O        0.38666    0.67470    0.61760    1.000
    O87      O        0.37623    0.87030    0.61670    1.000
    O88      O        0.44938    0.07990    0.40890    1.000
    O89      O        0.47273    0.00300    0.30420    1.000
    O90      O        0.43356    0.64820    0.23370    1.000
    O91      O        0.42310    0.53950    0.33230    1.000
    O92      O        0.29834    0.66300    0.45501    1.000
    O93      O        0.28850    0.85860    0.44277    1.000
    O94      O        0.21745    0.74170    0.38473    1.000
    O95      O        0.28876    0.00140    0.13900    1.000
    O96      O        0.31544    0.90970    0.04610    1.000
    O97      O        0.31593    0.52130    0.07800    1.000
    O98      O        0.31061    0.45640    0.20140    1.000
    P13      P        0.40904    0.78063    0.60915    1.000
    P14      P        0.27331    0.75381    0.40248    1.000
    H49      H        0.43400    0.59800    0.19800    1.000
    Zn15     Zn       0.81811    0.13605    0.58244    1.000
    Zn16     Zn       0.80689    0.39095    0.56775    1.000
    C113     C        0.91965    0.28850    0.50260    1.000
    C114     C        0.93076    0.38460    0.47410    1.000
    H50      H        0.93070    0.44190    0.50930    1.000
    C115     C        0.94184    0.39740    0.39540    1.000
    C116     C        0.94020    0.31320    0.34260    1.000
    H51      H        0.94710    0.32100    0.28890    1.000
    C117     C        0.92860    0.21670    0.36770    1.000
    C118     C        0.91823    0.20550    0.44780    1.000
    H52      H        0.91020    0.14080    0.46470    1.000
    C119     C        0.95540    0.50260    0.36870    1.000
    C120     C        0.92780    0.12600    0.31040    1.000
    C121     C        0.78622    0.24690    0.29740    1.000
    C122     C        0.78840    0.33270    0.24720    1.000
    H53      H        0.78360    0.39780    0.26790    1.000
    C123     C        0.79762    0.32270    0.16600    1.000
    C124     C        0.80391    0.22550    0.13480    1.000
    H54      H        0.80950    0.21840    0.07990    1.000
    C125     C        0.80195    0.13890    0.18450    1.000
    C126     C        0.79273    0.15020    0.26480    1.000
    H55      H        0.79080    0.09200    0.29790    1.000
    C127     C        0.80083    0.41630    0.11270    1.000
    C128     C        0.80967    0.03250    0.15370    1.000
    O99      O        0.95856    0.28840    0.67570    1.000
    O100     O        0.88666    0.17470    0.61760    1.000
    O101     O        0.87623    0.37030    0.61670    1.000
    O102     O        0.94938    0.57990    0.40890    1.000
    O103     O        0.97273    0.50300    0.30420    1.000
    O104     O        0.93356    0.14820    0.23370    1.000
    O105     O        0.92310    0.03950    0.33230    1.000
    O106     O        0.79834    0.16300    0.45501    1.000
    O107     O        0.78850    0.35860    0.44277    1.000
    O108     O        0.71745    0.24170    0.38473    1.000
    O109     O        0.78876    0.50140    0.13900    1.000
    O110     O        0.81544    0.40970    0.04610    1.000
    O111     O        0.81593    0.02130    0.07800    1.000
    O112     O        0.81061    0.95640    0.20140    1.000
    P15      P        0.90904    0.28063    0.60915    1.000
    P16      P        0.77331    0.25381    0.40248    1.000
    H56      H        0.93400    0.09800    0.19800    1.000
    Zn17     Zn       0.50000    0.11321    0.25000    1.000
    Zn18     Zn       0.00000    0.61321    0.25000    1.000
    Zn19     Zn       0.50000    0.88679    0.75000    1.000
    Zn20     Zn       0.00000    0.38679    0.75000    1.000
