# CIF file generated by openbabel 3.1.0, see https://openbabel.org
data_I
_chemical_name_common 'image0'
_cell_length_a 13.12
_cell_length_b 13.049
_cell_length_c 12.85
_cell_angle_alpha 90
_cell_angle_beta 105.7
_cell_angle_gamma 90
_space_group_name_H-M_alt 'P 1'
_space_group_name_Hall 'P 1'
loop_
    _symmetry_equiv_pos_as_xyz
    x,y,z
loop_
    _atom_site_label
    _atom_site_type_symbol
    _atom_site_fract_x
    _atom_site_fract_y
    _atom_site_fract_z
    _atom_site_occupancy
    Er1      Er       0.26620    0.06720    0.32320    1.000
    O1       O        0.21800    0.01900    0.95700    1.000
    O2       O        0.19500    0.05300    0.11700    1.000
    O3       O        0.08510    0.06800    0.29200    1.000
    O4       O        0.41800    0.08400    0.25700    1.000
    O5       O        0.23100    0.40700    0.22300    1.000
    O6       O        0.25300    0.24200    0.26200    1.000
    O7       O        0.55400    0.94600    0.55400    1.000
    O8       O        0.31700    0.18800    0.49400    1.000
    C1       C        0.23800    0.01300    0.05500    1.000
    H1       H        0.29460    0.97030    0.08730    1.000
    C2       C        0.24000    0.31700    0.20300    1.000
    H2       H        0.23690    0.30220    0.13150    1.000
    C3       C        0.51700    0.03000    0.52500    1.000
    O9       O        0.25400    0.19200    0.42700    1.000
    H3       H        0.19260    0.25410    0.43900    1.000
    H4       H        0.54760    0.08400    0.56940    1.000
    Er2      Er       0.76620    0.56720    0.32320    1.000
    O10      O        0.71800    0.51900    0.95700    1.000
    O11      O        0.69500    0.55300    0.11700    1.000
    O12      O        0.58510    0.56800    0.29200    1.000
    O13      O        0.91800    0.58400    0.25700    1.000
    O14      O        0.73100    0.90700    0.22300    1.000
    O15      O        0.75300    0.74200    0.26200    1.000
    O16      O        0.05400    0.44600    0.55400    1.000
    O17      O        0.81700    0.68800    0.49400    1.000
    C4       C        0.73800    0.51300    0.05500    1.000
    H5       H        0.79460    0.47030    0.08730    1.000
    C5       C        0.74000    0.81700    0.20300    1.000
    H6       H        0.73690    0.80220    0.13150    1.000
    C6       C        0.01700    0.53000    0.52500    1.000
    O18      O        0.75400    0.69200    0.42700    1.000
    H7       H        0.69260    0.75410    0.43900    1.000
    H8       H        0.04760    0.58400    0.56940    1.000
    Er3      Er       0.73380    0.06720    0.17680    1.000
    O19      O        0.78200    0.01900    0.54300    1.000
    O20      O        0.80500    0.05300    0.38300    1.000
    O21      O        0.91490    0.06800    0.20800    1.000
    O22      O        0.58200    0.08400    0.24300    1.000
    O23      O        0.76900    0.40700    0.27700    1.000
    O24      O        0.74700    0.24200    0.23800    1.000
    O25      O        0.44600    0.94600    0.94600    1.000
    O26      O        0.68300    0.18800    0.00600    1.000
    C7       C        0.76200    0.01300    0.44500    1.000
    H9       H        0.70540    0.97030    0.41270    1.000
    C8       C        0.76000    0.31700    0.29700    1.000
    H10      H        0.76310    0.30220    0.36850    1.000
    C9       C        0.48300    0.03000    0.97500    1.000
    O27      O        0.74600    0.19200    0.07300    1.000
    H11      H        0.80740    0.25410    0.06100    1.000
    H12      H        0.45240    0.08400    0.93060    1.000
    Er4      Er       0.23380    0.56720    0.17680    1.000
    O28      O        0.28200    0.51900    0.54300    1.000
    O29      O        0.30500    0.55300    0.38300    1.000
    O30      O        0.41490    0.56800    0.20800    1.000
    O31      O        0.08200    0.58400    0.24300    1.000
    O32      O        0.26900    0.90700    0.27700    1.000
    O33      O        0.24700    0.74200    0.23800    1.000
    O34      O        0.94600    0.44600    0.94600    1.000
    O35      O        0.18300    0.68800    0.00600    1.000
    C10      C        0.26200    0.51300    0.44500    1.000
    H13      H        0.20540    0.47030    0.41270    1.000
    C11      C        0.26000    0.81700    0.29700    1.000
    H14      H        0.26310    0.80220    0.36850    1.000
    C12      C        0.98300    0.53000    0.97500    1.000
    O36      O        0.24600    0.69200    0.07300    1.000
    H15      H        0.30740    0.75410    0.06100    1.000
    H16      H        0.95240    0.58400    0.93060    1.000
    Er5      Er       0.73380    0.93280    0.67680    1.000
    O37      O        0.78200    0.98100    0.04300    1.000
    O38      O        0.80500    0.94700    0.88300    1.000
    O39      O        0.91490    0.93200    0.70800    1.000
    O40      O        0.58200    0.91600    0.74300    1.000
    O41      O        0.76900    0.59300    0.77700    1.000
    O42      O        0.74700    0.75800    0.73800    1.000
    O43      O        0.44600    0.05400    0.44600    1.000
    O44      O        0.68300    0.81200    0.50600    1.000
    C13      C        0.76200    0.98700    0.94500    1.000
    H17      H        0.70540    0.02970    0.91270    1.000
    C14      C        0.76000    0.68300    0.79700    1.000
    H18      H        0.76310    0.69780    0.86850    1.000
    C15      C        0.48300    0.97000    0.47500    1.000
    O45      O        0.74600    0.80800    0.57300    1.000
    H19      H        0.80740    0.74590    0.56100    1.000
    H20      H        0.45240    0.91600    0.43060    1.000
    Er6      Er       0.23380    0.43280    0.67680    1.000
    O46      O        0.28200    0.48100    0.04300    1.000
    O47      O        0.30500    0.44700    0.88300    1.000
    O48      O        0.41490    0.43200    0.70800    1.000
    O49      O        0.08200    0.41600    0.74300    1.000
    O50      O        0.26900    0.09300    0.77700    1.000
    O51      O        0.24700    0.25800    0.73800    1.000
    O52      O        0.94600    0.55400    0.44600    1.000
    O53      O        0.18300    0.31200    0.50600    1.000
    C16      C        0.26200    0.48700    0.94500    1.000
    H21      H        0.20540    0.52970    0.91270    1.000
    C17      C        0.26000    0.18300    0.79700    1.000
    H22      H        0.26310    0.19780    0.86850    1.000
    C18      C        0.98300    0.47000    0.47500    1.000
    O54      O        0.24600    0.30800    0.57300    1.000
    H23      H        0.30740    0.24590    0.56100    1.000
    H24      H        0.95240    0.41600    0.43060    1.000
    Er7      Er       0.26620    0.93280    0.82320    1.000
    O55      O        0.21800    0.98100    0.45700    1.000
    O56      O        0.19500    0.94700    0.61700    1.000
    O57      O        0.08510    0.93200    0.79200    1.000
    O58      O        0.41800    0.91600    0.75700    1.000
    O59      O        0.23100    0.59300    0.72300    1.000
    O60      O        0.25300    0.75800    0.76200    1.000
    O61      O        0.55400    0.05400    0.05400    1.000
    O62      O        0.31700    0.81200    0.99400    1.000
    C19      C        0.23800    0.98700    0.55500    1.000
    H25      H        0.29460    0.02970    0.58730    1.000
    C20      C        0.24000    0.68300    0.70300    1.000
    H26      H        0.23690    0.69780    0.63150    1.000
    C21      C        0.51700    0.97000    0.02500    1.000
    O63      O        0.25400    0.80800    0.92700    1.000
    H27      H        0.19260    0.74590    0.93900    1.000
    H28      H        0.54760    0.91600    0.06940    1.000
    Er8      Er       0.76620    0.43280    0.82320    1.000
    O64      O        0.71800    0.48100    0.45700    1.000
    O65      O        0.69500    0.44700    0.61700    1.000
    O66      O        0.58510    0.43200    0.79200    1.000
    O67      O        0.91800    0.41600    0.75700    1.000
    O68      O        0.73100    0.09300    0.72300    1.000
    O69      O        0.75300    0.25800    0.76200    1.000
    O70      O        0.05400    0.55400    0.05400    1.000
    O71      O        0.81700    0.31200    0.99400    1.000
    C22      C        0.73800    0.48700    0.55500    1.000
    H29      H        0.79460    0.52970    0.58730    1.000
    C23      C        0.74000    0.18300    0.70300    1.000
    H30      H        0.73690    0.19780    0.63150    1.000
    C24      C        0.01700    0.47000    0.02500    1.000
    O72      O        0.75400    0.30800    0.92700    1.000
    H31      H        0.69260    0.24590    0.93900    1.000
    H32      H        0.04760    0.41600    0.06940    1.000
    C25      C        0.00000    0.10700    0.25000    1.000
    H33      H        0.00000    0.17840    0.25000    1.000
    C26      C        0.50000    0.60700    0.25000    1.000
    H34      H        0.50000    0.67840    0.25000    1.000
    C27      C        0.00000    0.89300    0.75000    1.000
    H35      H        0.00000    0.82160    0.75000    1.000
    C28      C        0.50000    0.39300    0.75000    1.000
    H36      H        0.50000    0.32160    0.75000    1.000
    C29      C        0.50000    0.04500    0.25000    1.000
    H37      H        0.50000    0.97320    0.25000    1.000
    C30      C        0.00000    0.54500    0.25000    1.000
    H38      H        0.00000    0.47320    0.25000    1.000
    C31      C        0.50000    0.95500    0.75000    1.000
    H39      H        0.50000    0.02680    0.75000    1.000
    C32      C        0.00000    0.45500    0.75000    1.000
    H40      H        0.00000    0.52680    0.75000    1.000
    C33      C        0.25000    0.25000    0.50000    1.000
    C34      C        0.75000    0.25000    0.00000    1.000
    C35      C        0.75000    0.75000    0.50000    1.000
    C36      C        0.25000    0.75000    0.00000    1.000
