# CIF file generated by openbabel 3.1.0, see https://openbabel.org
data_I
_chemical_name_common 'image0'
_cell_length_a 35.159
_cell_length_b 14.6274
_cell_length_c 31.1596
_cell_angle_alpha 90
_cell_angle_beta 101.486
_cell_angle_gamma 90
_space_group_name_H-M_alt 'P 1'
_space_group_name_Hall 'P 1'
loop_
    _symmetry_equiv_pos_as_xyz
    x,y,z
loop_
    _atom_site_label
    _atom_site_type_symbol
    _atom_site_fract_x
    _atom_site_fract_y
    _atom_site_fract_z
    _atom_site_occupancy
    I1       I        0.26808    0.24564    0.20883    1.000
    I2       I        0.37941    0.25813    0.44031    1.000
    I3       I        0.37450    0.16405    0.30409    1.000
    I4       I        0.60846    0.24157    0.60254    1.000
    I5       I        0.47597    0.33836    0.36850    1.000
    I6       I        0.64848    0.09748    0.49184    1.000
    Zn1      Zn       0.41674    0.37164    0.40347    1.000
    Zn2      Zn       0.62586    0.09916    0.56384    1.000
    Zn3      Zn       0.32974    0.15187    0.22913    1.000
    N1       N        0.57860    0.01240    0.55850    1.000
    N2       N        0.37850    0.44130    0.35440    1.000
    N3       N        0.16770    0.46900    0.10840    1.000
    N4       N        0.31810    0.01330    0.22030    1.000
    N5       N        0.36190    0.82830    0.68150    1.000
    N6       N        0.27920    0.55220    0.22640    1.000
    N7       N        0.26660    0.69260    0.18770    1.000
    N8       N        0.42920    0.48100    0.44680    1.000
    N9       N        0.31970    0.67920    0.24740    1.000
    N10      N        0.47500    0.77230    0.52550    1.000
    N11      N        0.46000    0.85350    0.58590    1.000
    C1       C        0.18420    0.43120    0.14700    1.000
    H1       H        0.17510    0.37360    0.15470    1.000
    N12      N        0.42440    0.72130    0.55930    1.000
    C2       C        0.34660    0.40480    0.33140    1.000
    H2       H        0.33930    0.34510    0.33860    1.000
    C3       C        0.51470    0.90020    0.55550    1.000
    C4       C        0.33340    0.53870    0.28730    1.000
    C5       C        0.48100    0.83830    0.55550    1.000
    C6       C        0.22660    0.55860    0.16470    1.000
    C7       C        0.46160    0.53110    0.45090    1.000
    H3       H        0.48070    0.51310    0.43480    1.000
    C8       C        0.21400    0.47410    0.17560    1.000
    H4       H        0.22560    0.44560    0.20240    1.000
    C9       C        0.43110    0.79340    0.58560    1.000
    C10      C        0.25920    0.60390    0.19440    1.000
    C11      C        0.17990    0.55030    0.09830    1.000
    H5       H        0.16810    0.57660    0.07100    1.000
    C12      C        0.40730    0.80570    0.61880    1.000
    C13      C        0.44100    0.63290    0.50090    1.000
    C14      C        0.20880    0.59880    0.12510    1.000
    H6       H        0.21640    0.65760    0.11690    1.000
    C15      C        0.53210    0.90870    0.52030    1.000
    H7       H        0.52220    0.87570    0.49420    1.000
    C16      C        0.32340    0.45110    0.29710    1.000
    H8       H        0.30080    0.42290    0.28060    1.000
    C17      C        0.30980    0.59340    0.25160    1.000
    C18      C        0.30480    0.82600    0.21520    1.000
    C19      C        0.35040    0.77610    0.64640    1.000
    H9       H        0.32590    0.74700    0.64300    1.000
    C20      C        0.36710    0.57640    0.31180    1.000
    H10      H        0.37500    0.63660    0.30610    1.000
    C21      C        0.34330    0.95440    0.24350    1.000
    H11      H        0.36590    0.97800    0.26210    1.000
    C22      C        0.38860    0.52430    0.34430    1.000
    H12      H        0.41200    0.54930    0.36050    1.000
    C23      C        0.56360    0.96470    0.52240    1.000
    H13      H        0.57530    0.96980    0.49750    1.000
    C24      C        0.46870    0.60700    0.47710    1.000
    H14      H        0.49200    0.64110    0.47900    1.000
    C25      C        0.40730    0.58140    0.49670    1.000
    H15      H        0.38780    0.59800    0.51240    1.000
    C26      C        0.28620    0.97960    0.19380    1.000
    H16      H        0.26830    0.02070    0.17690    1.000
    C27      C        0.29660    0.72620    0.21600    1.000
    C28      C        0.41960    0.85960    0.65510    1.000
    H17      H        0.44380    0.89060    0.65890    1.000
    C29      C        0.44680    0.71380    0.52970    1.000
    C30      C        0.33790    0.86190    0.24170    1.000
    H18      H        0.35660    0.82240    0.25840    1.000
    C31      C        0.40230    0.50690    0.46980    1.000
    H19      H        0.37920    0.47210    0.46720    1.000
    C32      C        0.27890    0.88710    0.19050    1.000
    H20      H        0.25630    0.86490    0.17140    1.000
    C33      C        0.39670    0.86860    0.68570    1.000
    H21      H        0.40590    0.90490    0.71090    1.000
    C34      C        0.37180    0.76180    0.61490    1.000
    H22      H        0.36250    0.72260    0.59080    1.000
    C35      C        0.56220    0.00220    0.59310    1.000
    H23      H        0.57300    0.03470    0.61900    1.000
    C36      C        0.53070    0.94780    0.59360    1.000
    H24      H        0.52000    0.94250    0.61920    1.000
    I7       I        0.47360    0.34890    0.37960    1.000
    I8       I        0.76808    0.74564    0.20883    1.000
    I9       I        0.87941    0.75813    0.44031    1.000
    I10      I        0.87450    0.66405    0.30409    1.000
    I11      I        0.10846    0.74157    0.60254    1.000
    I12      I        0.97597    0.83836    0.36850    1.000
    I13      I        0.14848    0.59748    0.49184    1.000
    Zn4      Zn       0.91674    0.87164    0.40347    1.000
    Zn5      Zn       0.12586    0.59916    0.56384    1.000
    Zn6      Zn       0.82974    0.65187    0.22913    1.000
    N13      N        0.07860    0.51240    0.55850    1.000
    N14      N        0.87850    0.94130    0.35440    1.000
    N15      N        0.66770    0.96900    0.10840    1.000
    N16      N        0.81810    0.51330    0.22030    1.000
    N17      N        0.86190    0.32830    0.68150    1.000
    N18      N        0.77920    0.05220    0.22640    1.000
    N19      N        0.76660    0.19260    0.18770    1.000
    N20      N        0.92920    0.98100    0.44680    1.000
    N21      N        0.81970    0.17920    0.24740    1.000
    N22      N        0.97500    0.27230    0.52550    1.000
    N23      N        0.96000    0.35350    0.58590    1.000
    C37      C        0.68420    0.93120    0.14700    1.000
    H25      H        0.67510    0.87360    0.15470    1.000
    N24      N        0.92440    0.22130    0.55930    1.000
    C38      C        0.84660    0.90480    0.33140    1.000
    H26      H        0.83930    0.84510    0.33860    1.000
    C39      C        0.01470    0.40020    0.55550    1.000
    C40      C        0.83340    0.03870    0.28730    1.000
    C41      C        0.98100    0.33830    0.55550    1.000
    C42      C        0.72660    0.05860    0.16470    1.000
    C43      C        0.96160    0.03110    0.45090    1.000
    H27      H        0.98070    0.01310    0.43480    1.000
    C44      C        0.71400    0.97410    0.17560    1.000
    H28      H        0.72560    0.94560    0.20240    1.000
    C45      C        0.93110    0.29340    0.58560    1.000
    C46      C        0.75920    0.10390    0.19440    1.000
    C47      C        0.67990    0.05030    0.09830    1.000
    H29      H        0.66810    0.07660    0.07100    1.000
    C48      C        0.90730    0.30570    0.61880    1.000
    C49      C        0.94100    0.13290    0.50090    1.000
    C50      C        0.70880    0.09880    0.12510    1.000
    H30      H        0.71640    0.15760    0.11690    1.000
    C51      C        0.03210    0.40870    0.52030    1.000
    H31      H        0.02220    0.37570    0.49420    1.000
    C52      C        0.82340    0.95110    0.29710    1.000
    H32      H        0.80080    0.92290    0.28060    1.000
    C53      C        0.80980    0.09340    0.25160    1.000
    C54      C        0.80480    0.32600    0.21520    1.000
    C55      C        0.85040    0.27610    0.64640    1.000
    H33      H        0.82590    0.24700    0.64300    1.000
    C56      C        0.86710    0.07640    0.31180    1.000
    H34      H        0.87500    0.13660    0.30610    1.000
    C57      C        0.84330    0.45440    0.24350    1.000
    H35      H        0.86590    0.47800    0.26210    1.000
    C58      C        0.88860    0.02430    0.34430    1.000
    H36      H        0.91200    0.04930    0.36050    1.000
    C59      C        0.06360    0.46470    0.52240    1.000
    H37      H        0.07530    0.46980    0.49750    1.000
    C60      C        0.96870    0.10700    0.47710    1.000
    H38      H        0.99200    0.14110    0.47900    1.000
    C61      C        0.90730    0.08140    0.49670    1.000
    H39      H        0.88780    0.09800    0.51240    1.000
    C62      C        0.78620    0.47960    0.19380    1.000
    H40      H        0.76830    0.52070    0.17690    1.000
    C63      C        0.79660    0.22620    0.21600    1.000
    C64      C        0.91960    0.35960    0.65510    1.000
    H41      H        0.94380    0.39060    0.65890    1.000
    C65      C        0.94680    0.21380    0.52970    1.000
    C66      C        0.83790    0.36190    0.24170    1.000
    H42      H        0.85660    0.32240    0.25840    1.000
    C67      C        0.90230    0.00690    0.46980    1.000
    H43      H        0.87920    0.97210    0.46720    1.000
    C68      C        0.77890    0.38710    0.19050    1.000
    H44      H        0.75630    0.36490    0.17140    1.000
    C69      C        0.89670    0.36860    0.68570    1.000
    H45      H        0.90590    0.40490    0.71090    1.000
    C70      C        0.87180    0.26180    0.61490    1.000
    H46      H        0.86250    0.22260    0.59080    1.000
    C71      C        0.06220    0.50220    0.59310    1.000
    H47      H        0.07300    0.53470    0.61900    1.000
    C72      C        0.03070    0.44780    0.59360    1.000
    H48      H        0.02000    0.44250    0.61920    1.000
    I14      I        0.97360    0.84890    0.37960    1.000
    I15      I        0.26808    0.75436    0.70883    1.000
    I16      I        0.37941    0.74187    0.94031    1.000
    I17      I        0.37450    0.83595    0.80409    1.000
    I18      I        0.60846    0.75843    0.10254    1.000
    I19      I        0.47597    0.66164    0.86850    1.000
    I20      I        0.64848    0.90252    0.99184    1.000
    Zn7      Zn       0.41674    0.62836    0.90347    1.000
    Zn8      Zn       0.62586    0.90084    0.06384    1.000
    Zn9      Zn       0.32974    0.84813    0.72913    1.000
    N25      N        0.57860    0.98760    0.05850    1.000
    N26      N        0.37850    0.55870    0.85440    1.000
    N27      N        0.16770    0.53100    0.60840    1.000
    N28      N        0.31810    0.98670    0.72030    1.000
    N29      N        0.36190    0.17170    0.18150    1.000
    N30      N        0.27920    0.44780    0.72640    1.000
    N31      N        0.26660    0.30740    0.68770    1.000
    N32      N        0.42920    0.51900    0.94680    1.000
    N33      N        0.31970    0.32080    0.74740    1.000
    N34      N        0.47500    0.22770    0.02550    1.000
    N35      N        0.46000    0.14650    0.08590    1.000
    C73      C        0.18420    0.56880    0.64700    1.000
    H49      H        0.17510    0.62640    0.65470    1.000
    N36      N        0.42440    0.27870    0.05930    1.000
    C74      C        0.34660    0.59520    0.83140    1.000
    H50      H        0.33930    0.65490    0.83860    1.000
    C75      C        0.51470    0.09980    0.05550    1.000
    C76      C        0.33340    0.46130    0.78730    1.000
    C77      C        0.48100    0.16170    0.05550    1.000
    C78      C        0.22660    0.44140    0.66470    1.000
    C79      C        0.46160    0.46890    0.95090    1.000
    H51      H        0.48070    0.48690    0.93480    1.000
    C80      C        0.21400    0.52590    0.67560    1.000
    H52      H        0.22560    0.55440    0.70240    1.000
    C81      C        0.43110    0.20660    0.08560    1.000
    C82      C        0.25920    0.39610    0.69440    1.000
    C83      C        0.17990    0.44970    0.59830    1.000
    H53      H        0.16810    0.42340    0.57100    1.000
    C84      C        0.40730    0.19430    0.11880    1.000
    C85      C        0.44100    0.36710    0.00090    1.000
    C86      C        0.20880    0.40120    0.62510    1.000
    H54      H        0.21640    0.34240    0.61690    1.000
    C87      C        0.53210    0.09130    0.02030    1.000
    H55      H        0.52220    0.12430    0.99420    1.000
    C88      C        0.32340    0.54890    0.79710    1.000
    H56      H        0.30080    0.57710    0.78060    1.000
    C89      C        0.30980    0.40660    0.75160    1.000
    C90      C        0.30480    0.17400    0.71520    1.000
    C91      C        0.35040    0.22390    0.14640    1.000
    H57      H        0.32590    0.25300    0.14300    1.000
    C92      C        0.36710    0.42360    0.81180    1.000
    H58      H        0.37500    0.36340    0.80610    1.000
    C93      C        0.34330    0.04560    0.74350    1.000
    H59      H        0.36590    0.02200    0.76210    1.000
    C94      C        0.38860    0.47570    0.84430    1.000
    H60      H        0.41200    0.45070    0.86050    1.000
    C95      C        0.56360    0.03530    0.02240    1.000
    H61      H        0.57530    0.03020    0.99750    1.000
    C96      C        0.46870    0.39300    0.97710    1.000
    H62      H        0.49200    0.35890    0.97900    1.000
    C97      C        0.40730    0.41860    0.99670    1.000
    H63      H        0.38780    0.40200    0.01240    1.000
    C98      C        0.28620    0.02040    0.69380    1.000
    H64      H        0.26830    0.97930    0.67690    1.000
    C99      C        0.29660    0.27380    0.71600    1.000
    C100     C        0.41960    0.14040    0.15510    1.000
    H65      H        0.44380    0.10940    0.15890    1.000
    C101     C        0.44680    0.28620    0.02970    1.000
    C102     C        0.33790    0.13810    0.74170    1.000
    H66      H        0.35660    0.17760    0.75840    1.000
    C103     C        0.40230    0.49310    0.96980    1.000
    H67      H        0.37920    0.52790    0.96720    1.000
    C104     C        0.27890    0.11290    0.69050    1.000
    H68      H        0.25630    0.13510    0.67140    1.000
    C105     C        0.39670    0.13140    0.18570    1.000
    H69      H        0.40590    0.09510    0.21090    1.000
    C106     C        0.37180    0.23820    0.11490    1.000
    H70      H        0.36250    0.27740    0.09080    1.000
    C107     C        0.56220    0.99780    0.09310    1.000
    H71      H        0.57300    0.96530    0.11900    1.000
    C108     C        0.53070    0.05220    0.09360    1.000
    H72      H        0.52000    0.05750    0.11920    1.000
    I21      I        0.47360    0.65110    0.87960    1.000
    I22      I        0.76808    0.25436    0.70883    1.000
    I23      I        0.87941    0.24187    0.94031    1.000
    I24      I        0.87450    0.33595    0.80409    1.000
    I25      I        0.10846    0.25843    0.10254    1.000
    I26      I        0.97597    0.16164    0.86850    1.000
    I27      I        0.14848    0.40252    0.99184    1.000
    Zn10     Zn       0.91674    0.12836    0.90347    1.000
    Zn11     Zn       0.12586    0.40084    0.06384    1.000
    Zn12     Zn       0.82974    0.34813    0.72913    1.000
    N37      N        0.07860    0.48760    0.05850    1.000
    N38      N        0.87850    0.05870    0.85440    1.000
    N39      N        0.66770    0.03100    0.60840    1.000
    N40      N        0.81810    0.48670    0.72030    1.000
    N41      N        0.86190    0.67170    0.18150    1.000
    N42      N        0.77920    0.94780    0.72640    1.000
    N43      N        0.76660    0.80740    0.68770    1.000
    N44      N        0.92920    0.01900    0.94680    1.000
    N45      N        0.81970    0.82080    0.74740    1.000
    N46      N        0.97500    0.72770    0.02550    1.000
    N47      N        0.96000    0.64650    0.08590    1.000
    C109     C        0.68420    0.06880    0.64700    1.000
    H73      H        0.67510    0.12640    0.65470    1.000
    N48      N        0.92440    0.77870    0.05930    1.000
    C110     C        0.84660    0.09520    0.83140    1.000
    H74      H        0.83930    0.15490    0.83860    1.000
    C111     C        0.01470    0.59980    0.05550    1.000
    C112     C        0.83340    0.96130    0.78730    1.000
    C113     C        0.98100    0.66170    0.05550    1.000
    C114     C        0.72660    0.94140    0.66470    1.000
    C115     C        0.96160    0.96890    0.95090    1.000
    H75      H        0.98070    0.98690    0.93480    1.000
    C116     C        0.71400    0.02590    0.67560    1.000
    H76      H        0.72560    0.05440    0.70240    1.000
    C117     C        0.93110    0.70660    0.08560    1.000
    C118     C        0.75920    0.89610    0.69440    1.000
    C119     C        0.67990    0.94970    0.59830    1.000
    H77      H        0.66810    0.92340    0.57100    1.000
    C120     C        0.90730    0.69430    0.11880    1.000
    C121     C        0.94100    0.86710    0.00090    1.000
    C122     C        0.70880    0.90120    0.62510    1.000
    H78      H        0.71640    0.84240    0.61690    1.000
    C123     C        0.03210    0.59130    0.02030    1.000
    H79      H        0.02220    0.62430    0.99420    1.000
    C124     C        0.82340    0.04890    0.79710    1.000
    H80      H        0.80080    0.07710    0.78060    1.000
    C125     C        0.80980    0.90660    0.75160    1.000
    C126     C        0.80480    0.67400    0.71520    1.000
    C127     C        0.85040    0.72390    0.14640    1.000
    H81      H        0.82590    0.75300    0.14300    1.000
    C128     C        0.86710    0.92360    0.81180    1.000
    H82      H        0.87500    0.86340    0.80610    1.000
    C129     C        0.84330    0.54560    0.74350    1.000
    H83      H        0.86590    0.52200    0.76210    1.000
    C130     C        0.88860    0.97570    0.84430    1.000
    H84      H        0.91200    0.95070    0.86050    1.000
    C131     C        0.06360    0.53530    0.02240    1.000
    H85      H        0.07530    0.53020    0.99750    1.000
    C132     C        0.96870    0.89300    0.97710    1.000
    H86      H        0.99200    0.85890    0.97900    1.000
    C133     C        0.90730    0.91860    0.99670    1.000
    H87      H        0.88780    0.90200    0.01240    1.000
    C134     C        0.78620    0.52040    0.69380    1.000
    H88      H        0.76830    0.47930    0.67690    1.000
    C135     C        0.79660    0.77380    0.71600    1.000
    C136     C        0.91960    0.64040    0.15510    1.000
    H89      H        0.94380    0.60940    0.15890    1.000
    C137     C        0.94680    0.78620    0.02970    1.000
    C138     C        0.83790    0.63810    0.74170    1.000
    H90      H        0.85660    0.67760    0.75840    1.000
    C139     C        0.90230    0.99310    0.96980    1.000
    H91      H        0.87920    0.02790    0.96720    1.000
    C140     C        0.77890    0.61290    0.69050    1.000
    H92      H        0.75630    0.63510    0.67140    1.000
    C141     C        0.89670    0.63140    0.18570    1.000
    H93      H        0.90590    0.59510    0.21090    1.000
    C142     C        0.87180    0.73820    0.11490    1.000
    H94      H        0.86250    0.77740    0.09080    1.000
    C143     C        0.06220    0.49780    0.09310    1.000
    H95      H        0.07300    0.46530    0.11900    1.000
    C144     C        0.03070    0.55220    0.09360    1.000
    H96      H        0.02000    0.55750    0.11920    1.000
    I28      I        0.97360    0.15110    0.87960    1.000
    I29      I        0.73192    0.24564    0.29117    1.000
    I30      I        0.62059    0.25813    0.05969    1.000
    I31      I        0.62550    0.16405    0.19591    1.000
    I32      I        0.39154    0.24157    0.89746    1.000
    I33      I        0.52403    0.33836    0.13150    1.000
    I34      I        0.35152    0.09748    0.00816    1.000
    Zn13     Zn       0.58326    0.37164    0.09653    1.000
    Zn14     Zn       0.37414    0.09916    0.93616    1.000
    Zn15     Zn       0.67026    0.15187    0.27087    1.000
    N49      N        0.42140    0.01240    0.94150    1.000
    N50      N        0.62150    0.44130    0.14560    1.000
    N51      N        0.83230    0.46900    0.39160    1.000
    N52      N        0.68190    0.01330    0.27970    1.000
    N53      N        0.63810    0.82830    0.81850    1.000
    N54      N        0.72080    0.55220    0.27360    1.000
    N55      N        0.73340    0.69260    0.31230    1.000
    N56      N        0.57080    0.48100    0.05320    1.000
    N57      N        0.68030    0.67920    0.25260    1.000
    N58      N        0.52500    0.77230    0.97450    1.000
    N59      N        0.54000    0.85350    0.91410    1.000
    C145     C        0.81580    0.43120    0.35300    1.000
    H97      H        0.82490    0.37360    0.34530    1.000
    N60      N        0.57560    0.72130    0.94070    1.000
    C146     C        0.65340    0.40480    0.16860    1.000
    H98      H        0.66070    0.34510    0.16140    1.000
    C147     C        0.48530    0.90020    0.94450    1.000
    C148     C        0.66660    0.53870    0.21270    1.000
    C149     C        0.51900    0.83830    0.94450    1.000
    C150     C        0.77340    0.55860    0.33530    1.000
    C151     C        0.53840    0.53110    0.04910    1.000
    H99      H        0.51930    0.51310    0.06520    1.000
    C152     C        0.78600    0.47410    0.32440    1.000
    H100     H        0.77440    0.44560    0.29760    1.000
    C153     C        0.56890    0.79340    0.91440    1.000
    C154     C        0.74080    0.60390    0.30560    1.000
    C155     C        0.82010    0.55030    0.40170    1.000
    H101     H        0.83190    0.57660    0.42900    1.000
    C156     C        0.59270    0.80570    0.88120    1.000
    C157     C        0.55900    0.63290    0.99910    1.000
    C158     C        0.79120    0.59880    0.37490    1.000
    H102     H        0.78360    0.65760    0.38310    1.000
    C159     C        0.46790    0.90870    0.97970    1.000
    H103     H        0.47780    0.87570    0.00580    1.000
    C160     C        0.67660    0.45110    0.20290    1.000
    H104     H        0.69920    0.42290    0.21940    1.000
    C161     C        0.69020    0.59340    0.24840    1.000
    C162     C        0.69520    0.82600    0.28480    1.000
    C163     C        0.64960    0.77610    0.85360    1.000
    H105     H        0.67410    0.74700    0.85700    1.000
    C164     C        0.63290    0.57640    0.18820    1.000
    H106     H        0.62500    0.63660    0.19390    1.000
    C165     C        0.65670    0.95440    0.25650    1.000
    H107     H        0.63410    0.97800    0.23790    1.000
    C166     C        0.61140    0.52430    0.15570    1.000
    H108     H        0.58800    0.54930    0.13950    1.000
    C167     C        0.43640    0.96470    0.97760    1.000
    H109     H        0.42470    0.96980    0.00250    1.000
    C168     C        0.53130    0.60700    0.02290    1.000
    H110     H        0.50800    0.64110    0.02100    1.000
    C169     C        0.59270    0.58140    0.00330    1.000
    H111     H        0.61220    0.59800    0.98760    1.000
    C170     C        0.71380    0.97960    0.30620    1.000
    H112     H        0.73170    0.02070    0.32310    1.000
    C171     C        0.70340    0.72620    0.28400    1.000
    C172     C        0.58040    0.85960    0.84490    1.000
    H113     H        0.55620    0.89060    0.84110    1.000
    C173     C        0.55320    0.71380    0.97030    1.000
    C174     C        0.66210    0.86190    0.25830    1.000
    H114     H        0.64340    0.82240    0.24160    1.000
    C175     C        0.59770    0.50690    0.03020    1.000
    H115     H        0.62080    0.47210    0.03280    1.000
    C176     C        0.72110    0.88710    0.30950    1.000
    H116     H        0.74370    0.86490    0.32860    1.000
    C177     C        0.60330    0.86860    0.81430    1.000
    H117     H        0.59410    0.90490    0.78910    1.000
    C178     C        0.62820    0.76180    0.88510    1.000
    H118     H        0.63750    0.72260    0.90920    1.000
    C179     C        0.43780    0.00220    0.90690    1.000
    H119     H        0.42700    0.03470    0.88100    1.000
    C180     C        0.46930    0.94780    0.90640    1.000
    H120     H        0.48000    0.94250    0.88080    1.000
    I35      I        0.52640    0.34890    0.12040    1.000
    I36      I        0.23192    0.74564    0.29117    1.000
    I37      I        0.12059    0.75813    0.05969    1.000
    I38      I        0.12550    0.66405    0.19591    1.000
    I39      I        0.89154    0.74157    0.89746    1.000
    I40      I        0.02403    0.83836    0.13150    1.000
    I41      I        0.85152    0.59748    0.00816    1.000
    Zn16     Zn       0.08326    0.87164    0.09653    1.000
    Zn17     Zn       0.87414    0.59916    0.93616    1.000
    Zn18     Zn       0.17026    0.65187    0.27087    1.000
    N61      N        0.92140    0.51240    0.94150    1.000
    N62      N        0.12150    0.94130    0.14560    1.000
    N63      N        0.33230    0.96900    0.39160    1.000
    N64      N        0.18190    0.51330    0.27970    1.000
    N65      N        0.13810    0.32830    0.81850    1.000
    N66      N        0.22080    0.05220    0.27360    1.000
    N67      N        0.23340    0.19260    0.31230    1.000
    N68      N        0.07080    0.98100    0.05320    1.000
    N69      N        0.18030    0.17920    0.25260    1.000
    N70      N        0.02500    0.27230    0.97450    1.000
    N71      N        0.04000    0.35350    0.91410    1.000
    C181     C        0.31580    0.93120    0.35300    1.000
    H121     H        0.32490    0.87360    0.34530    1.000
    N72      N        0.07560    0.22130    0.94070    1.000
    C182     C        0.15340    0.90480    0.16860    1.000
    H122     H        0.16070    0.84510    0.16140    1.000
    C183     C        0.98530    0.40020    0.94450    1.000
    C184     C        0.16660    0.03870    0.21270    1.000
    C185     C        0.01900    0.33830    0.94450    1.000
    C186     C        0.27340    0.05860    0.33530    1.000
    C187     C        0.03840    0.03110    0.04910    1.000
    H123     H        0.01930    0.01310    0.06520    1.000
    C188     C        0.28600    0.97410    0.32440    1.000
    H124     H        0.27440    0.94560    0.29760    1.000
    C189     C        0.06890    0.29340    0.91440    1.000
    C190     C        0.24080    0.10390    0.30560    1.000
    C191     C        0.32010    0.05030    0.40170    1.000
    H125     H        0.33190    0.07660    0.42900    1.000
    C192     C        0.09270    0.30570    0.88120    1.000
    C193     C        0.05900    0.13290    0.99910    1.000
    C194     C        0.29120    0.09880    0.37490    1.000
    H126     H        0.28360    0.15760    0.38310    1.000
    C195     C        0.96790    0.40870    0.97970    1.000
    H127     H        0.97780    0.37570    0.00580    1.000
    C196     C        0.17660    0.95110    0.20290    1.000
    H128     H        0.19920    0.92290    0.21940    1.000
    C197     C        0.19020    0.09340    0.24840    1.000
    C198     C        0.19520    0.32600    0.28480    1.000
    C199     C        0.14960    0.27610    0.85360    1.000
    H129     H        0.17410    0.24700    0.85700    1.000
    C200     C        0.13290    0.07640    0.18820    1.000
    H130     H        0.12500    0.13660    0.19390    1.000
    C201     C        0.15670    0.45440    0.25650    1.000
    H131     H        0.13410    0.47800    0.23790    1.000
    C202     C        0.11140    0.02430    0.15570    1.000
    H132     H        0.08800    0.04930    0.13950    1.000
    C203     C        0.93640    0.46470    0.97760    1.000
    H133     H        0.92470    0.46980    0.00250    1.000
    C204     C        0.03130    0.10700    0.02290    1.000
    H134     H        0.00800    0.14110    0.02100    1.000
    C205     C        0.09270    0.08140    0.00330    1.000
    H135     H        0.11220    0.09800    0.98760    1.000
    C206     C        0.21380    0.47960    0.30620    1.000
    H136     H        0.23170    0.52070    0.32310    1.000
    C207     C        0.20340    0.22620    0.28400    1.000
    C208     C        0.08040    0.35960    0.84490    1.000
    H137     H        0.05620    0.39060    0.84110    1.000
    C209     C        0.05320    0.21380    0.97030    1.000
    C210     C        0.16210    0.36190    0.25830    1.000
    H138     H        0.14340    0.32240    0.24160    1.000
    C211     C        0.09770    0.00690    0.03020    1.000
    H139     H        0.12080    0.97210    0.03280    1.000
    C212     C        0.22110    0.38710    0.30950    1.000
    H140     H        0.24370    0.36490    0.32860    1.000
    C213     C        0.10330    0.36860    0.81430    1.000
    H141     H        0.09410    0.40490    0.78910    1.000
    C214     C        0.12820    0.26180    0.88510    1.000
    H142     H        0.13750    0.22260    0.90920    1.000
    C215     C        0.93780    0.50220    0.90690    1.000
    H143     H        0.92700    0.53470    0.88100    1.000
    C216     C        0.96930    0.44780    0.90640    1.000
    H144     H        0.98000    0.44250    0.88080    1.000
    I42      I        0.02640    0.84890    0.12040    1.000
    I43      I        0.73192    0.75436    0.79117    1.000
    I44      I        0.62059    0.74187    0.55969    1.000
    I45      I        0.62550    0.83595    0.69591    1.000
    I46      I        0.39154    0.75843    0.39746    1.000
    I47      I        0.52403    0.66164    0.63150    1.000
    I48      I        0.35152    0.90252    0.50816    1.000
    Zn19     Zn       0.58326    0.62836    0.59653    1.000
    Zn20     Zn       0.37414    0.90084    0.43616    1.000
    Zn21     Zn       0.67026    0.84813    0.77087    1.000
    N73      N        0.42140    0.98760    0.44150    1.000
    N74      N        0.62150    0.55870    0.64560    1.000
    N75      N        0.83230    0.53100    0.89160    1.000
    N76      N        0.68190    0.98670    0.77970    1.000
    N77      N        0.63810    0.17170    0.31850    1.000
    N78      N        0.72080    0.44780    0.77360    1.000
    N79      N        0.73340    0.30740    0.81230    1.000
    N80      N        0.57080    0.51900    0.55320    1.000
    N81      N        0.68030    0.32080    0.75260    1.000
    N82      N        0.52500    0.22770    0.47450    1.000
    N83      N        0.54000    0.14650    0.41410    1.000
    C217     C        0.81580    0.56880    0.85300    1.000
    H145     H        0.82490    0.62640    0.84530    1.000
    N84      N        0.57560    0.27870    0.44070    1.000
    C218     C        0.65340    0.59520    0.66860    1.000
    H146     H        0.66070    0.65490    0.66140    1.000
    C219     C        0.48530    0.09980    0.44450    1.000
    C220     C        0.66660    0.46130    0.71270    1.000
    C221     C        0.51900    0.16170    0.44450    1.000
    C222     C        0.77340    0.44140    0.83530    1.000
    C223     C        0.53840    0.46890    0.54910    1.000
    H147     H        0.51930    0.48690    0.56520    1.000
    C224     C        0.78600    0.52590    0.82440    1.000
    H148     H        0.77440    0.55440    0.79760    1.000
    C225     C        0.56890    0.20660    0.41440    1.000
    C226     C        0.74080    0.39610    0.80560    1.000
    C227     C        0.82010    0.44970    0.90170    1.000
    H149     H        0.83190    0.42340    0.92900    1.000
    C228     C        0.59270    0.19430    0.38120    1.000
    C229     C        0.55900    0.36710    0.49910    1.000
    C230     C        0.79120    0.40120    0.87490    1.000
    H150     H        0.78360    0.34240    0.88310    1.000
    C231     C        0.46790    0.09130    0.47970    1.000
    H151     H        0.47780    0.12430    0.50580    1.000
    C232     C        0.67660    0.54890    0.70290    1.000
    H152     H        0.69920    0.57710    0.71940    1.000
    C233     C        0.69020    0.40660    0.74840    1.000
    C234     C        0.69520    0.17400    0.78480    1.000
    C235     C        0.64960    0.22390    0.35360    1.000
    H153     H        0.67410    0.25300    0.35700    1.000
    C236     C        0.63290    0.42360    0.68820    1.000
    H154     H        0.62500    0.36340    0.69390    1.000
    C237     C        0.65670    0.04560    0.75650    1.000
    H155     H        0.63410    0.02200    0.73790    1.000
    C238     C        0.61140    0.47570    0.65570    1.000
    H156     H        0.58800    0.45070    0.63950    1.000
    C239     C        0.43640    0.03530    0.47760    1.000
    H157     H        0.42470    0.03020    0.50250    1.000
    C240     C        0.53130    0.39300    0.52290    1.000
    H158     H        0.50800    0.35890    0.52100    1.000
    C241     C        0.59270    0.41860    0.50330    1.000
    H159     H        0.61220    0.40200    0.48760    1.000
    C242     C        0.71380    0.02040    0.80620    1.000
    H160     H        0.73170    0.97930    0.82310    1.000
    C243     C        0.70340    0.27380    0.78400    1.000
    C244     C        0.58040    0.14040    0.34490    1.000
    H161     H        0.55620    0.10940    0.34110    1.000
    C245     C        0.55320    0.28620    0.47030    1.000
    C246     C        0.66210    0.13810    0.75830    1.000
    H162     H        0.64340    0.17760    0.74160    1.000
    C247     C        0.59770    0.49310    0.53020    1.000
    H163     H        0.62080    0.52790    0.53280    1.000
    C248     C        0.72110    0.11290    0.80950    1.000
    H164     H        0.74370    0.13510    0.82860    1.000
    C249     C        0.60330    0.13140    0.31430    1.000
    H165     H        0.59410    0.09510    0.28910    1.000
    C250     C        0.62820    0.23820    0.38510    1.000
    H166     H        0.63750    0.27740    0.40920    1.000
    C251     C        0.43780    0.99780    0.40690    1.000
    H167     H        0.42700    0.96530    0.38100    1.000
    C252     C        0.46930    0.05220    0.40640    1.000
    H168     H        0.48000    0.05750    0.38080    1.000
    I49      I        0.52640    0.65110    0.62040    1.000
    I50      I        0.23192    0.25436    0.79117    1.000
    I51      I        0.12059    0.24187    0.55969    1.000
    I52      I        0.12550    0.33595    0.69591    1.000
    I53      I        0.89154    0.25843    0.39746    1.000
    I54      I        0.02403    0.16164    0.63150    1.000
    I55      I        0.85152    0.40252    0.50816    1.000
    Zn22     Zn       0.08326    0.12836    0.59653    1.000
    Zn23     Zn       0.87414    0.40084    0.43616    1.000
    Zn24     Zn       0.17026    0.34813    0.77087    1.000
    N85      N        0.92140    0.48760    0.44150    1.000
    N86      N        0.12150    0.05870    0.64560    1.000
    N87      N        0.33230    0.03100    0.89160    1.000
    N88      N        0.18190    0.48670    0.77970    1.000
    N89      N        0.13810    0.67170    0.31850    1.000
    N90      N        0.22080    0.94780    0.77360    1.000
    N91      N        0.23340    0.80740    0.81230    1.000
    N92      N        0.07080    0.01900    0.55320    1.000
    N93      N        0.18030    0.82080    0.75260    1.000
    N94      N        0.02500    0.72770    0.47450    1.000
    N95      N        0.04000    0.64650    0.41410    1.000
    C253     C        0.31580    0.06880    0.85300    1.000
    H169     H        0.32490    0.12640    0.84530    1.000
    N96      N        0.07560    0.77870    0.44070    1.000
    C254     C        0.15340    0.09520    0.66860    1.000
    H170     H        0.16070    0.15490    0.66140    1.000
    C255     C        0.98530    0.59980    0.44450    1.000
    C256     C        0.16660    0.96130    0.71270    1.000
    C257     C        0.01900    0.66170    0.44450    1.000
    C258     C        0.27340    0.94140    0.83530    1.000
    C259     C        0.03840    0.96890    0.54910    1.000
    H171     H        0.01930    0.98690    0.56520    1.000
    C260     C        0.28600    0.02590    0.82440    1.000
    H172     H        0.27440    0.05440    0.79760    1.000
    C261     C        0.06890    0.70660    0.41440    1.000
    C262     C        0.24080    0.89610    0.80560    1.000
    C263     C        0.32010    0.94970    0.90170    1.000
    H173     H        0.33190    0.92340    0.92900    1.000
    C264     C        0.09270    0.69430    0.38120    1.000
    C265     C        0.05900    0.86710    0.49910    1.000
    C266     C        0.29120    0.90120    0.87490    1.000
    H174     H        0.28360    0.84240    0.88310    1.000
    C267     C        0.96790    0.59130    0.47970    1.000
    H175     H        0.97780    0.62430    0.50580    1.000
    C268     C        0.17660    0.04890    0.70290    1.000
    H176     H        0.19920    0.07710    0.71940    1.000
    C269     C        0.19020    0.90660    0.74840    1.000
    C270     C        0.19520    0.67400    0.78480    1.000
    C271     C        0.14960    0.72390    0.35360    1.000
    H177     H        0.17410    0.75300    0.35700    1.000
    C272     C        0.13290    0.92360    0.68820    1.000
    H178     H        0.12500    0.86340    0.69390    1.000
    C273     C        0.15670    0.54560    0.75650    1.000
    H179     H        0.13410    0.52200    0.73790    1.000
    C274     C        0.11140    0.97570    0.65570    1.000
    H180     H        0.08800    0.95070    0.63950    1.000
    C275     C        0.93640    0.53530    0.47760    1.000
    H181     H        0.92470    0.53020    0.50250    1.000
    C276     C        0.03130    0.89300    0.52290    1.000
    H182     H        0.00800    0.85890    0.52100    1.000
    C277     C        0.09270    0.91860    0.50330    1.000
    H183     H        0.11220    0.90200    0.48760    1.000
    C278     C        0.21380    0.52040    0.80620    1.000
    H184     H        0.23170    0.47930    0.82310    1.000
    C279     C        0.20340    0.77380    0.78400    1.000
    C280     C        0.08040    0.64040    0.34490    1.000
    H185     H        0.05620    0.60940    0.34110    1.000
    C281     C        0.05320    0.78620    0.47030    1.000
    C282     C        0.16210    0.63810    0.75830    1.000
    H186     H        0.14340    0.67760    0.74160    1.000
    C283     C        0.09770    0.99310    0.53020    1.000
    H187     H        0.12080    0.02790    0.53280    1.000
    C284     C        0.22110    0.61290    0.80950    1.000
    H188     H        0.24370    0.63510    0.82860    1.000
    C285     C        0.10330    0.63140    0.31430    1.000
    H189     H        0.09410    0.59510    0.28910    1.000
    C286     C        0.12820    0.73820    0.38510    1.000
    H190     H        0.13750    0.77740    0.40920    1.000
    C287     C        0.93780    0.49780    0.40690    1.000
    H191     H        0.92700    0.46530    0.38100    1.000
    C288     C        0.96930    0.55220    0.40640    1.000
    H192     H        0.98000    0.55750    0.38080    1.000
    I56      I        0.02640    0.15110    0.62040    1.000
