# CIF file generated by openbabel 3.1.0, see https://openbabel.org
data_I
_chemical_name_common 'image0'
_cell_length_a 17.0778
_cell_length_b 16.9284
_cell_length_c 20.3385
_cell_angle_alpha 90
_cell_angle_beta 108.115
_cell_angle_gamma 90
_space_group_name_H-M_alt 'P 1'
_space_group_name_Hall 'P 1'
loop_
    _symmetry_equiv_pos_as_xyz
    x,y,z
loop_
    _atom_site_label
    _atom_site_type_symbol
    _atom_site_fract_x
    _atom_site_fract_y
    _atom_site_fract_z
    _atom_site_occupancy
    Tb1      Tb       0.49445    0.06205    0.58235    1.000
    C1       C        0.51220    0.30850    0.63850    1.000
    C2       C        0.44070    0.35280    0.62470    1.000
    H1       H        0.38980    0.33090    0.60100    1.000
    C3       C        0.44690    0.43070    0.64710    1.000
    C4       C        0.58800    0.42070    0.69430    1.000
    H2       H        0.63850    0.44360    0.71800    1.000
    C5       C        0.58740    0.34370    0.67150    1.000
    H3       H        0.63630    0.31610    0.67830    1.000
    C6       C        0.37400    0.48230    0.63380    1.000
    C7       C        0.30110    0.46750    0.58130    1.000
    H4       H        0.29620    0.42360    0.55280    1.000
    C8       C        0.23600    0.51910    0.57210    1.000
    C9       C        0.24500    0.58660    0.61280    1.000
    H5       H        0.20240    0.62300    0.60600    1.000
    C10      C        0.31880    0.59780    0.66330    1.000
    H6       H        0.32570    0.64270    0.69090    1.000
    C11      C        0.54790    0.65280    0.63680    1.000
    H7       H        0.56070    0.60380    0.62220    1.000
    C12      C        0.54930    0.71810    0.59660    1.000
    H8       H        0.56260    0.71310    0.55580    1.000
    C13      C        0.53030    0.79210    0.61870    1.000
    C14      C        0.51190    0.79620    0.68130    1.000
    H9       H        0.50070    0.84450    0.69800    1.000
    C15      C        0.51080    0.72770    0.71750    1.000
    C16      C        0.52810    0.86610    0.57720    1.000
    C17      C        0.15390    0.50010    0.51840    1.000
    C18      C        0.50820    0.22260    0.61860    1.000
    N1       N        0.51940    0.46400    0.68400    1.000
    N2       N        0.38180    0.54660    0.67470    1.000
    N3       N        0.52880    0.65660    0.69590    1.000
    O1       O        0.57060    0.18930    0.61120    1.000
    O2       O        0.44150    0.18620    0.61070    1.000
    O3       O        0.15350    0.45760    0.46670    1.000
    O4       O        0.08920    0.52650    0.52580    1.000
    O5       O        0.51130    0.92780    0.60430    1.000
    O6       O        0.54090    0.86070    0.51980    1.000
    Tb2      Tb       0.99445    0.56205    0.58235    1.000
    C19      C        0.01220    0.80850    0.63850    1.000
    C20      C        0.94070    0.85280    0.62470    1.000
    H10      H        0.88980    0.83090    0.60100    1.000
    C21      C        0.94690    0.93070    0.64710    1.000
    C22      C        0.08800    0.92070    0.69430    1.000
    H11      H        0.13850    0.94360    0.71800    1.000
    C23      C        0.08740    0.84370    0.67150    1.000
    H12      H        0.13630    0.81610    0.67830    1.000
    C24      C        0.87400    0.98230    0.63380    1.000
    C25      C        0.80110    0.96750    0.58130    1.000
    H13      H        0.79620    0.92360    0.55280    1.000
    C26      C        0.73600    0.01910    0.57210    1.000
    C27      C        0.74500    0.08660    0.61280    1.000
    H14      H        0.70240    0.12300    0.60600    1.000
    C28      C        0.81880    0.09780    0.66330    1.000
    H15      H        0.82570    0.14270    0.69090    1.000
    C29      C        0.04790    0.15280    0.63680    1.000
    H16      H        0.06070    0.10380    0.62220    1.000
    C30      C        0.04930    0.21810    0.59660    1.000
    H17      H        0.06260    0.21310    0.55580    1.000
    C31      C        0.03030    0.29210    0.61870    1.000
    C32      C        0.01190    0.29620    0.68130    1.000
    H18      H        0.00070    0.34450    0.69800    1.000
    C33      C        0.01080    0.22770    0.71750    1.000
    C34      C        0.02810    0.36610    0.57720    1.000
    C35      C        0.65390    0.00010    0.51840    1.000
    C36      C        0.00820    0.72260    0.61860    1.000
    N4       N        0.01940    0.96400    0.68400    1.000
    N5       N        0.88180    0.04660    0.67470    1.000
    N6       N        0.02880    0.15660    0.69590    1.000
    O7       O        0.07060    0.68930    0.61120    1.000
    O8       O        0.94150    0.68620    0.61070    1.000
    O9       O        0.65350    0.95760    0.46670    1.000
    O10      O        0.58920    0.02650    0.52580    1.000
    O11      O        0.01130    0.42780    0.60430    1.000
    O12      O        0.04090    0.36070    0.51980    1.000
    Tb3      Tb       0.50555    0.06205    0.91765    1.000
    C37      C        0.48780    0.30850    0.86150    1.000
    C38      C        0.55930    0.35280    0.87530    1.000
    H19      H        0.61020    0.33090    0.89900    1.000
    C39      C        0.55310    0.43070    0.85290    1.000
    C40      C        0.41200    0.42070    0.80570    1.000
    H20      H        0.36150    0.44360    0.78200    1.000
    C41      C        0.41260    0.34370    0.82850    1.000
    H21      H        0.36370    0.31610    0.82170    1.000
    C42      C        0.62600    0.48230    0.86620    1.000
    C43      C        0.69890    0.46750    0.91870    1.000
    H22      H        0.70380    0.42360    0.94720    1.000
    C44      C        0.76400    0.51910    0.92790    1.000
    C45      C        0.75500    0.58660    0.88720    1.000
    H23      H        0.79760    0.62300    0.89400    1.000
    C46      C        0.68120    0.59780    0.83670    1.000
    H24      H        0.67430    0.64270    0.80910    1.000
    C47      C        0.45210    0.65280    0.86320    1.000
    H25      H        0.43930    0.60380    0.87780    1.000
    C48      C        0.45070    0.71810    0.90340    1.000
    H26      H        0.43740    0.71310    0.94420    1.000
    C49      C        0.46970    0.79210    0.88130    1.000
    C50      C        0.48810    0.79620    0.81870    1.000
    H27      H        0.49930    0.84450    0.80200    1.000
    C51      C        0.48920    0.72770    0.78250    1.000
    C52      C        0.47190    0.86610    0.92280    1.000
    C53      C        0.84610    0.50010    0.98160    1.000
    C54      C        0.49180    0.22260    0.88140    1.000
    N7       N        0.48060    0.46400    0.81600    1.000
    N8       N        0.61820    0.54660    0.82530    1.000
    N9       N        0.47120    0.65660    0.80410    1.000
    O13      O        0.42940    0.18930    0.88880    1.000
    O14      O        0.55850    0.18620    0.88930    1.000
    O15      O        0.84650    0.45760    0.03330    1.000
    O16      O        0.91080    0.52650    0.97420    1.000
    O17      O        0.48870    0.92780    0.89570    1.000
    O18      O        0.45910    0.86070    0.98020    1.000
    Tb4      Tb       0.00555    0.56205    0.91765    1.000
    C55      C        0.98780    0.80850    0.86150    1.000
    C56      C        0.05930    0.85280    0.87530    1.000
    H28      H        0.11020    0.83090    0.89900    1.000
    C57      C        0.05310    0.93070    0.85290    1.000
    C58      C        0.91200    0.92070    0.80570    1.000
    H29      H        0.86150    0.94360    0.78200    1.000
    C59      C        0.91260    0.84370    0.82850    1.000
    H30      H        0.86370    0.81610    0.82170    1.000
    C60      C        0.12600    0.98230    0.86620    1.000
    C61      C        0.19890    0.96750    0.91870    1.000
    H31      H        0.20380    0.92360    0.94720    1.000
    C62      C        0.26400    0.01910    0.92790    1.000
    C63      C        0.25500    0.08660    0.88720    1.000
    H32      H        0.29760    0.12300    0.89400    1.000
    C64      C        0.18120    0.09780    0.83670    1.000
    H33      H        0.17430    0.14270    0.80910    1.000
    C65      C        0.95210    0.15280    0.86320    1.000
    H34      H        0.93930    0.10380    0.87780    1.000
    C66      C        0.95070    0.21810    0.90340    1.000
    H35      H        0.93740    0.21310    0.94420    1.000
    C67      C        0.96970    0.29210    0.88130    1.000
    C68      C        0.98810    0.29620    0.81870    1.000
    H36      H        0.99930    0.34450    0.80200    1.000
    C69      C        0.98920    0.22770    0.78250    1.000
    C70      C        0.97190    0.36610    0.92280    1.000
    C71      C        0.34610    0.00010    0.98160    1.000
    C72      C        0.99180    0.72260    0.88140    1.000
    N10      N        0.98060    0.96400    0.81600    1.000
    N11      N        0.11820    0.04660    0.82530    1.000
    N12      N        0.97120    0.15660    0.80410    1.000
    O19      O        0.92940    0.68930    0.88880    1.000
    O20      O        0.05850    0.68620    0.88930    1.000
    O21      O        0.34650    0.95760    0.03330    1.000
    O22      O        0.41080    0.02650    0.97420    1.000
    O23      O        0.98870    0.42780    0.89570    1.000
    O24      O        0.95910    0.36070    0.98020    1.000
    Tb5      Tb       0.50555    0.93795    0.41765    1.000
    C73      C        0.48780    0.69150    0.36150    1.000
    C74      C        0.55930    0.64720    0.37530    1.000
    H37      H        0.61020    0.66910    0.39900    1.000
    C75      C        0.55310    0.56930    0.35290    1.000
    C76      C        0.41200    0.57930    0.30570    1.000
    H38      H        0.36150    0.55640    0.28200    1.000
    C77      C        0.41260    0.65630    0.32850    1.000
    H39      H        0.36370    0.68390    0.32170    1.000
    C78      C        0.62600    0.51770    0.36620    1.000
    C79      C        0.69890    0.53250    0.41870    1.000
    H40      H        0.70380    0.57640    0.44720    1.000
    C80      C        0.76400    0.48090    0.42790    1.000
    C81      C        0.75500    0.41340    0.38720    1.000
    H41      H        0.79760    0.37700    0.39400    1.000
    C82      C        0.68120    0.40220    0.33670    1.000
    H42      H        0.67430    0.35730    0.30910    1.000
    C83      C        0.45210    0.34720    0.36320    1.000
    H43      H        0.43930    0.39620    0.37780    1.000
    C84      C        0.45070    0.28190    0.40340    1.000
    H44      H        0.43740    0.28690    0.44420    1.000
    C85      C        0.46970    0.20790    0.38130    1.000
    C86      C        0.48810    0.20380    0.31870    1.000
    H45      H        0.49930    0.15550    0.30200    1.000
    C87      C        0.48920    0.27230    0.28250    1.000
    C88      C        0.47190    0.13390    0.42280    1.000
    C89      C        0.84610    0.49990    0.48160    1.000
    C90      C        0.49180    0.77740    0.38140    1.000
    N13      N        0.48060    0.53600    0.31600    1.000
    N14      N        0.61820    0.45340    0.32530    1.000
    N15      N        0.47120    0.34340    0.30410    1.000
    O25      O        0.42940    0.81070    0.38880    1.000
    O26      O        0.55850    0.81380    0.38930    1.000
    O27      O        0.84650    0.54240    0.53330    1.000
    O28      O        0.91080    0.47350    0.47420    1.000
    O29      O        0.48870    0.07220    0.39570    1.000
    O30      O        0.45910    0.13930    0.48020    1.000
    Tb6      Tb       0.00555    0.43795    0.41765    1.000
    C91      C        0.98780    0.19150    0.36150    1.000
    C92      C        0.05930    0.14720    0.37530    1.000
    H46      H        0.11020    0.16910    0.39900    1.000
    C93      C        0.05310    0.06930    0.35290    1.000
    C94      C        0.91200    0.07930    0.30570    1.000
    H47      H        0.86150    0.05640    0.28200    1.000
    C95      C        0.91260    0.15630    0.32850    1.000
    H48      H        0.86370    0.18390    0.32170    1.000
    C96      C        0.12600    0.01770    0.36620    1.000
    C97      C        0.19890    0.03250    0.41870    1.000
    H49      H        0.20380    0.07640    0.44720    1.000
    C98      C        0.26400    0.98090    0.42790    1.000
    C99      C        0.25500    0.91340    0.38720    1.000
    H50      H        0.29760    0.87700    0.39400    1.000
    C100     C        0.18120    0.90220    0.33670    1.000
    H51      H        0.17430    0.85730    0.30910    1.000
    C101     C        0.95210    0.84720    0.36320    1.000
    H52      H        0.93930    0.89620    0.37780    1.000
    C102     C        0.95070    0.78190    0.40340    1.000
    H53      H        0.93740    0.78690    0.44420    1.000
    C103     C        0.96970    0.70790    0.38130    1.000
    C104     C        0.98810    0.70380    0.31870    1.000
    H54      H        0.99930    0.65550    0.30200    1.000
    C105     C        0.98920    0.77230    0.28250    1.000
    C106     C        0.97190    0.63390    0.42280    1.000
    C107     C        0.34610    0.99990    0.48160    1.000
    C108     C        0.99180    0.27740    0.38140    1.000
    N16      N        0.98060    0.03600    0.31600    1.000
    N17      N        0.11820    0.95340    0.32530    1.000
    N18      N        0.97120    0.84340    0.30410    1.000
    O31      O        0.92940    0.31070    0.38880    1.000
    O32      O        0.05850    0.31380    0.38930    1.000
    O33      O        0.34650    0.04240    0.53330    1.000
    O34      O        0.41080    0.97350    0.47420    1.000
    O35      O        0.98870    0.57220    0.39570    1.000
    O36      O        0.95910    0.63930    0.48020    1.000
    Tb7      Tb       0.49445    0.93795    0.08235    1.000
    C109     C        0.51220    0.69150    0.13850    1.000
    C110     C        0.44070    0.64720    0.12470    1.000
    H55      H        0.38980    0.66910    0.10100    1.000
    C111     C        0.44690    0.56930    0.14710    1.000
    C112     C        0.58800    0.57930    0.19430    1.000
    H56      H        0.63850    0.55640    0.21800    1.000
    C113     C        0.58740    0.65630    0.17150    1.000
    H57      H        0.63630    0.68390    0.17830    1.000
    C114     C        0.37400    0.51770    0.13380    1.000
    C115     C        0.30110    0.53250    0.08130    1.000
    H58      H        0.29620    0.57640    0.05280    1.000
    C116     C        0.23600    0.48090    0.07210    1.000
    C117     C        0.24500    0.41340    0.11280    1.000
    H59      H        0.20240    0.37700    0.10600    1.000
    C118     C        0.31880    0.40220    0.16330    1.000
    H60      H        0.32570    0.35730    0.19090    1.000
    C119     C        0.54790    0.34720    0.13680    1.000
    H61      H        0.56070    0.39620    0.12220    1.000
    C120     C        0.54930    0.28190    0.09660    1.000
    H62      H        0.56260    0.28690    0.05580    1.000
    C121     C        0.53030    0.20790    0.11870    1.000
    C122     C        0.51190    0.20380    0.18130    1.000
    H63      H        0.50070    0.15550    0.19800    1.000
    C123     C        0.51080    0.27230    0.21750    1.000
    C124     C        0.52810    0.13390    0.07720    1.000
    C125     C        0.15390    0.49990    0.01840    1.000
    C126     C        0.50820    0.77740    0.11860    1.000
    N19      N        0.51940    0.53600    0.18400    1.000
    N20      N        0.38180    0.45340    0.17470    1.000
    N21      N        0.52880    0.34340    0.19590    1.000
    O37      O        0.57060    0.81070    0.11120    1.000
    O38      O        0.44150    0.81380    0.11070    1.000
    O39      O        0.15350    0.54240    0.96670    1.000
    O40      O        0.08920    0.47350    0.02580    1.000
    O41      O        0.51130    0.07220    0.10430    1.000
    O42      O        0.54090    0.13930    0.01980    1.000
    Tb8      Tb       0.99445    0.43795    0.08235    1.000
    C127     C        0.01220    0.19150    0.13850    1.000
    C128     C        0.94070    0.14720    0.12470    1.000
    H64      H        0.88980    0.16910    0.10100    1.000
    C129     C        0.94690    0.06930    0.14710    1.000
    C130     C        0.08800    0.07930    0.19430    1.000
    H65      H        0.13850    0.05640    0.21800    1.000
    C131     C        0.08740    0.15630    0.17150    1.000
    H66      H        0.13630    0.18390    0.17830    1.000
    C132     C        0.87400    0.01770    0.13380    1.000
    C133     C        0.80110    0.03250    0.08130    1.000
    H67      H        0.79620    0.07640    0.05280    1.000
    C134     C        0.73600    0.98090    0.07210    1.000
    C135     C        0.74500    0.91340    0.11280    1.000
    H68      H        0.70240    0.87700    0.10600    1.000
    C136     C        0.81880    0.90220    0.16330    1.000
    H69      H        0.82570    0.85730    0.19090    1.000
    C137     C        0.04790    0.84720    0.13680    1.000
    H70      H        0.06070    0.89620    0.12220    1.000
    C138     C        0.04930    0.78190    0.09660    1.000
    H71      H        0.06260    0.78690    0.05580    1.000
    C139     C        0.03030    0.70790    0.11870    1.000
    C140     C        0.01190    0.70380    0.18130    1.000
    H72      H        0.00070    0.65550    0.19800    1.000
    C141     C        0.01080    0.77230    0.21750    1.000
    C142     C        0.02810    0.63390    0.07720    1.000
    C143     C        0.65390    0.99990    0.01840    1.000
    C144     C        0.00820    0.27740    0.11860    1.000
    N22      N        0.01940    0.03600    0.18400    1.000
    N23      N        0.88180    0.95340    0.17470    1.000
    N24      N        0.02880    0.84340    0.19590    1.000
    O43      O        0.07060    0.31070    0.11120    1.000
    O44      O        0.94150    0.31380    0.11070    1.000
    O45      O        0.65350    0.04240    0.96670    1.000
    O46      O        0.58920    0.97350    0.02580    1.000
    O47      O        0.01130    0.57220    0.10430    1.000
    O48      O        0.04090    0.63930    0.01980    1.000
    Zn1      Zn       0.50000    0.55993    0.75000    1.000
    Zn2      Zn       0.00000    0.05993    0.75000    1.000
    Zn3      Zn       0.50000    0.44007    0.25000    1.000
    Zn4      Zn       0.00000    0.94007    0.25000    1.000
