# CIF file generated by openbabel 3.1.0, see https://openbabel.org
data_I
_chemical_name_common 'image0'
_cell_length_a 10.098
_cell_length_b 12.156
_cell_length_c 17.119
_cell_angle_alpha 90
_cell_angle_beta 96.32
_cell_angle_gamma 90
_space_group_name_H-M_alt 'P 1'
_space_group_name_Hall 'P 1'
loop_
    _symmetry_equiv_pos_as_xyz
    x,y,z
loop_
    _atom_site_label
    _atom_site_type_symbol
    _atom_site_fract_x
    _atom_site_fract_y
    _atom_site_fract_z
    _atom_site_occupancy
    Mn1      Mn       0.73110    0.77455    0.21230    1.000
    C1       C        0.65260    0.03730    0.19286    1.000
    C2       C        0.82260    0.51310    0.25089    1.000
    C3       C        0.96250    0.36960    0.27910    1.000
    C4       C        0.75860    0.83860    0.40331    1.000
    N1       N        0.67360    0.94640    0.18471    1.000
    N2       N        0.79150    0.60190    0.23928    1.000
    C5       C        0.55000    0.18580    0.23658    1.000
    N3       N        0.63730    0.14330    0.19520    1.000
    N4       N        0.84340    0.40910    0.26420    1.000
    N5       N        0.75710    0.81610    0.33947    1.000
    N6       N        0.76700    0.87570    0.47431    1.000
    N7       N        0.05920    0.32410    0.29390    1.000
    N8       N        0.47860    0.23110    0.27260    1.000
    C6       C        0.73180    0.81660    0.53167    1.000
    N9       N        0.70530    0.77470    0.58670    1.000
    Mn2      Mn       0.26890    0.27455    0.28770    1.000
    C7       C        0.34740    0.53730    0.30714    1.000
    C8       C        0.17740    0.01310    0.24911    1.000
    C9       C        0.03750    0.86960    0.22090    1.000
    C10      C        0.24140    0.33860    0.09669    1.000
    N10      N        0.32640    0.44640    0.31529    1.000
    N11      N        0.20850    0.10190    0.26072    1.000
    C11      C        0.45000    0.68580    0.26342    1.000
    N12      N        0.36270    0.64330    0.30480    1.000
    N13      N        0.15660    0.90910    0.23580    1.000
    N14      N        0.24290    0.31610    0.16053    1.000
    N15      N        0.23300    0.37570    0.02569    1.000
    N16      N        0.94080    0.82410    0.20610    1.000
    N17      N        0.52140    0.73110    0.22740    1.000
    C12      C        0.26820    0.31660    0.96833    1.000
    N18      N        0.29470    0.27470    0.91330    1.000
    Mn3      Mn       0.26890    0.22545    0.78770    1.000
    C13      C        0.34740    0.96270    0.80714    1.000
    C14      C        0.17740    0.48690    0.74911    1.000
    C15      C        0.03750    0.63040    0.72090    1.000
    C16      C        0.24140    0.16140    0.59669    1.000
    N19      N        0.32640    0.05360    0.81529    1.000
    N20      N        0.20850    0.39810    0.76072    1.000
    C17      C        0.45000    0.81420    0.76342    1.000
    N21      N        0.36270    0.85670    0.80480    1.000
    N22      N        0.15660    0.59090    0.73580    1.000
    N23      N        0.24290    0.18390    0.66053    1.000
    N24      N        0.23300    0.12430    0.52569    1.000
    N25      N        0.94080    0.67590    0.70610    1.000
    N26      N        0.52140    0.76890    0.72740    1.000
    C18      C        0.26820    0.18340    0.46833    1.000
    N27      N        0.29470    0.22530    0.41330    1.000
    Mn4      Mn       0.73110    0.72545    0.71230    1.000
    C19      C        0.65260    0.46270    0.69286    1.000
    C20      C        0.82260    0.98690    0.75089    1.000
    C21      C        0.96250    0.13040    0.77910    1.000
    C22      C        0.75860    0.66140    0.90331    1.000
    N28      N        0.67360    0.55360    0.68471    1.000
    N29      N        0.79150    0.89810    0.73928    1.000
    C23      C        0.55000    0.31420    0.73658    1.000
    N30      N        0.63730    0.35670    0.69520    1.000
    N31      N        0.84340    0.09090    0.76420    1.000
    N32      N        0.75710    0.68390    0.83947    1.000
    N33      N        0.76700    0.62430    0.97431    1.000
    N34      N        0.05920    0.17590    0.79390    1.000
    N35      N        0.47860    0.26890    0.77260    1.000
    C24      C        0.73180    0.68340    0.03167    1.000
    N36      N        0.70530    0.72530    0.08670    1.000
