# CIF file generated by openbabel 3.1.0, see https://openbabel.org
data_I
_chemical_name_common 'image0'
_cell_length_a 15.3327
_cell_length_b 9.5934
_cell_length_c 15.4363
_cell_angle_alpha 90
_cell_angle_beta 97.199
_cell_angle_gamma 90
_space_group_name_H-M_alt 'P 1'
_space_group_name_Hall 'P 1'
loop_
    _symmetry_equiv_pos_as_xyz
    x,y,z
loop_
    _atom_site_label
    _atom_site_type_symbol
    _atom_site_fract_x
    _atom_site_fract_y
    _atom_site_fract_z
    _atom_site_occupancy
    P1       P        0.29476    0.80549    0.26443    1.000
    P2       P        0.30550    0.40580    0.01130    1.000
    P3       P        0.50260    0.38300    0.82420    1.000
    P4       P        0.23179    0.67457    0.70135    1.000
    Be1      Be       0.31550    0.53470    0.18480    1.000
    Be2      Be       0.32100    0.46700    0.82510    1.000
    O1       O        0.27100    0.67790    0.21200    1.000
    O2       O        0.36550    0.88800    0.21760    1.000
    H1       H        0.41250    0.88910    0.24940    1.000
    O3       O        0.34230    0.77630    0.35510    1.000
    O4       O        0.21930    0.90240    0.26330    1.000
    O5       O        0.28930    0.51560    0.08050    1.000
    O6       O        0.30240    0.47730    0.92480    1.000
    O7       O        0.24320    0.28770    0.01390    1.000
    H2       H        0.23660    0.24840    0.96640    1.000
    O8       O        0.39900    0.34260    0.03450    1.000
    O9       O        0.42290    0.47060    0.81360    1.000
    O10      O        0.48880    0.23900    0.78560    1.000
    H3       H        0.44550    0.20330    0.80270    1.000
    O11      O        0.57880    0.46050    0.78930    1.000
    O12      O        0.52910    0.36290    0.92530    1.000
    H4       H        0.48460    0.36080    0.94970    1.000
    O13      O        0.27340    0.59940    0.77880    1.000
    O14      O        0.14210    0.61370    0.66830    1.000
    H5       H        0.11180    0.61090    0.70850    1.000
    O15      O        0.29040    0.65070    0.62750    1.000
    H6       H        0.25970    0.65130    0.58000    1.000
    O16      O        0.22430    0.82770    0.72060    1.000
    P5       P        0.33700    0.45200    0.02470    1.000
    P6       P        0.52570    0.42800    0.85260    1.000
    P7       P        0.20524    0.30549    0.23557    1.000
    P8       P        0.19450    0.90580    0.48870    1.000
    P9       P        0.99740    0.88300    0.67580    1.000
    P10      P        0.26821    0.17457    0.79865    1.000
    Be3      Be       0.18450    0.03470    0.31520    1.000
    Be4      Be       0.17900    0.96700    0.67490    1.000
    O17      O        0.22900    0.17790    0.28800    1.000
    O18      O        0.13450    0.38800    0.28240    1.000
    H7       H        0.08750    0.38910    0.25060    1.000
    O19      O        0.15770    0.27630    0.14490    1.000
    O20      O        0.28070    0.40240    0.23670    1.000
    O21      O        0.21070    0.01560    0.41950    1.000
    O22      O        0.19760    0.97730    0.57520    1.000
    O23      O        0.25680    0.78770    0.48610    1.000
    H8       H        0.26340    0.74840    0.53360    1.000
    O24      O        0.10100    0.84260    0.46550    1.000
    O25      O        0.07710    0.97060    0.68640    1.000
    O26      O        0.01120    0.73900    0.71440    1.000
    H9       H        0.05450    0.70330    0.69730    1.000
    O27      O        0.92120    0.96050    0.71070    1.000
    O28      O        0.97090    0.86290    0.57470    1.000
    H10      H        0.01540    0.86080    0.55030    1.000
    O29      O        0.22660    0.09940    0.72120    1.000
    O30      O        0.35790    0.11370    0.83170    1.000
    H11      H        0.38820    0.11090    0.79150    1.000
    O31      O        0.20960    0.15070    0.87250    1.000
    H12      H        0.24030    0.15130    0.92000    1.000
    O32      O        0.27570    0.32770    0.77940    1.000
    P11      P        0.16300    0.95200    0.47530    1.000
    P12      P        0.97430    0.92800    0.64740    1.000
    P13      P        0.70524    0.19451    0.73557    1.000
    P14      P        0.69450    0.59420    0.98870    1.000
    P15      P        0.49740    0.61700    0.17580    1.000
    P16      P        0.76821    0.32543    0.29865    1.000
    Be5      Be       0.68450    0.46530    0.81520    1.000
    Be6      Be       0.67900    0.53300    0.17490    1.000
    O33      O        0.72900    0.32210    0.78800    1.000
    O34      O        0.63450    0.11200    0.78240    1.000
    H13      H        0.58750    0.11090    0.75060    1.000
    O35      O        0.65770    0.22370    0.64490    1.000
    O36      O        0.78070    0.09760    0.73670    1.000
    O37      O        0.71070    0.48440    0.91950    1.000
    O38      O        0.69760    0.52270    0.07520    1.000
    O39      O        0.75680    0.71230    0.98610    1.000
    H14      H        0.76340    0.75160    0.03360    1.000
    O40      O        0.60100    0.65740    0.96550    1.000
    O41      O        0.57710    0.52940    0.18640    1.000
    O42      O        0.51120    0.76100    0.21440    1.000
    H15      H        0.55450    0.79670    0.19730    1.000
    O43      O        0.42120    0.53950    0.21070    1.000
    O44      O        0.47090    0.63710    0.07470    1.000
    H16      H        0.51540    0.63920    0.05030    1.000
    O45      O        0.72660    0.40060    0.22120    1.000
    O46      O        0.85790    0.38630    0.33170    1.000
    H17      H        0.88820    0.38910    0.29150    1.000
    O47      O        0.70960    0.34930    0.37250    1.000
    H18      H        0.74030    0.34870    0.42000    1.000
    O48      O        0.77570    0.17230    0.27940    1.000
    P17      P        0.66300    0.54800    0.97530    1.000
    P18      P        0.47430    0.57200    0.14740    1.000
    P19      P        0.79476    0.69451    0.76443    1.000
    P20      P        0.80550    0.09420    0.51130    1.000
    P21      P        0.00260    0.11700    0.32420    1.000
    P22      P        0.73179    0.82543    0.20135    1.000
    Be7      Be       0.81550    0.96530    0.68480    1.000
    Be8      Be       0.82100    0.03300    0.32510    1.000
    O49      O        0.77100    0.82210    0.71200    1.000
    O50      O        0.86550    0.61200    0.71760    1.000
    H19      H        0.91250    0.61090    0.74940    1.000
    O51      O        0.84230    0.72370    0.85510    1.000
    O52      O        0.71930    0.59760    0.76330    1.000
    O53      O        0.78930    0.98440    0.58050    1.000
    O54      O        0.80240    0.02270    0.42480    1.000
    O55      O        0.74320    0.21230    0.51390    1.000
    H20      H        0.73660    0.25160    0.46640    1.000
    O56      O        0.89900    0.15740    0.53450    1.000
    O57      O        0.92290    0.02940    0.31360    1.000
    O58      O        0.98880    0.26100    0.28560    1.000
    H21      H        0.94550    0.29670    0.30270    1.000
    O59      O        0.07880    0.03950    0.28930    1.000
    O60      O        0.02910    0.13710    0.42530    1.000
    H22      H        0.98460    0.13920    0.44970    1.000
    O61      O        0.77340    0.90060    0.27880    1.000
    O62      O        0.64210    0.88630    0.16830    1.000
    H23      H        0.61180    0.88910    0.20850    1.000
    O63      O        0.79040    0.84930    0.12750    1.000
    H24      H        0.75970    0.84870    0.08000    1.000
    O64      O        0.72430    0.67230    0.22060    1.000
    P23      P        0.83700    0.04800    0.52470    1.000
    P24      P        0.02570    0.07200    0.35260    1.000
