# CIF file generated by openbabel 3.1.0, see https://openbabel.org
data_I
_chemical_name_common 'PUJQEQ_clean'
_cell_length_a 14.7097
_cell_length_b 21.832
_cell_length_c 26.719
_cell_angle_alpha 90
_cell_angle_beta 90
_cell_angle_gamma 90
_space_group_name_H-M_alt 'P 1'
_space_group_name_Hall 'P 1'
loop_
    _symmetry_equiv_pos_as_xyz
    x,y,z
loop_
    _atom_site_label
    _atom_site_type_symbol
    _atom_site_fract_x
    _atom_site_fract_y
    _atom_site_fract_z
    _atom_site_occupancy
    Cu1      Cu       0.75366    0.99866    0.46239    1.000
    Cu2      Cu       0.24634    0.49866    0.03760    1.000
    Cu3      Cu       0.25366    0.49866    0.53761    1.000
    Cu4      Cu       0.74634    0.99866    0.96239    1.000
    H1       H        0.76500    0.87500    0.51000    1.000
    H2       H        0.66800    0.78700    0.52000    1.000
    H3       H        0.46700    0.87600    0.43900    1.000
    H4       H        0.56900    0.96000    0.43000    1.000
    H5       H        0.49900    0.74200    0.45800    1.000
    H6       H        0.42900    0.78700    0.48800    1.000
    H7       H        0.49600    0.76000    0.56600    1.000
    H8       H        0.57200    0.71900    0.53700    1.000
    H9       H        0.54200    0.61900    0.56700    1.000
    H10      H        0.44300    0.53100    0.56700    1.000
    H11      H        0.23400    0.63100    0.51100    1.000
    H12      H        0.32600    0.72300    0.51300    1.000
    H13      H        0.61400    0.99800    0.54400    1.000
    H14      H        0.60500    0.01800    0.63100    1.000
    H15      H        0.88700    0.03400    0.63500    1.000
    H16      H        0.88800    0.01700    0.54500    1.000
    H17      H        0.79700    0.06600    0.70700    1.000
    H18      H        0.68600    0.06200    0.70600    1.000
    H19      H        0.80500    0.95800    0.71600    1.000
    H20      H        0.69400    0.95400    0.71500    1.000
    H21      H        0.77100    0.08000    0.78600    1.000
    H22      H        0.76900    0.08400    0.87600    1.000
    H23      H        0.72400    0.90100    0.88400    1.000
    H24      H        0.72100    0.89300    0.79500    1.000
    H25      H        0.23500    0.37500    0.99000    1.000
    H26      H        0.33200    0.28700    0.98000    1.000
    H27      H        0.53300    0.37600    0.06100    1.000
    H28      H        0.43100    0.46000    0.07000    1.000
    H29      H        0.50100    0.24200    0.04200    1.000
    H30      H        0.57100    0.28700    0.01200    1.000
    H31      H        0.50400    0.26000    0.93400    1.000
    H32      H        0.42800    0.21900    0.96300    1.000
    H33      H        0.45800    0.11900    0.93300    1.000
    H34      H        0.55700    0.03100    0.93300    1.000
    H35      H        0.76600    0.13100    0.98900    1.000
    H36      H        0.67400    0.22300    0.98700    1.000
    H37      H        0.38600    0.49800    0.95600    1.000
    H38      H        0.39500    0.51800    0.86900    1.000
    H39      H        0.11300    0.53400    0.86500    1.000
    H40      H        0.11200    0.51700    0.95500    1.000
    H41      H        0.20300    0.56600    0.79300    1.000
    H42      H        0.31400    0.56200    0.79400    1.000
    H43      H        0.19500    0.45800    0.78400    1.000
    H44      H        0.30600    0.45400    0.78500    1.000
    H45      H        0.22900    0.58000    0.71400    1.000
    H46      H        0.23100    0.58400    0.62400    1.000
    H47      H        0.27600    0.40100    0.61600    1.000
    H48      H        0.27900    0.39300    0.70500    1.000
    H49      H        0.26500    0.37500    0.49000    1.000
    H50      H        0.16800    0.28700    0.48000    1.000
    H51      H        0.96700    0.37600    0.56100    1.000
    H52      H        0.06900    0.46000    0.57000    1.000
    H53      H        0.99900    0.24200    0.54200    1.000
    H54      H        0.92900    0.28700    0.51200    1.000
    H55      H        0.99600    0.26000    0.43400    1.000
    H56      H        0.07200    0.21900    0.46300    1.000
    H57      H        0.04200    0.11900    0.43300    1.000
    H58      H        0.94300    0.03100    0.43300    1.000
    H59      H        0.73400    0.13100    0.48900    1.000
    H60      H        0.82600    0.22300    0.48700    1.000
    H61      H        0.11400    0.49800    0.45600    1.000
    H62      H        0.10500    0.51800    0.36900    1.000
    H63      H        0.38700    0.53400    0.36500    1.000
    H64      H        0.38800    0.51700    0.45500    1.000
    H65      H        0.29700    0.56600    0.29300    1.000
    H66      H        0.18600    0.56200    0.29400    1.000
    H67      H        0.30500    0.45800    0.28400    1.000
    H68      H        0.19400    0.45400    0.28500    1.000
    H69      H        0.27100    0.58000    0.21400    1.000
    H70      H        0.26900    0.58400    0.12400    1.000
    H71      H        0.22400    0.40100    0.11600    1.000
    H72      H        0.22100    0.39300    0.20500    1.000
    H73      H        0.73500    0.87500    0.01000    1.000
    H74      H        0.83200    0.78700    0.02000    1.000
    H75      H        0.03300    0.87600    0.93900    1.000
    H76      H        0.93100    0.96000    0.93000    1.000
    H77      H        0.00100    0.74200    0.95800    1.000
    H78      H        0.07100    0.78700    0.98800    1.000
    H79      H        0.00400    0.76000    0.06600    1.000
    H80      H        0.92800    0.71900    0.03700    1.000
    H81      H        0.95800    0.61900    0.06700    1.000
    H82      H        0.05700    0.53100    0.06700    1.000
    H83      H        0.26600    0.63100    0.01100    1.000
    H84      H        0.17400    0.72300    0.01300    1.000
    H85      H        0.88600    0.99800    0.04400    1.000
    H86      H        0.89500    0.01800    0.13100    1.000
    H87      H        0.61300    0.03400    0.13500    1.000
    H88      H        0.61200    0.01700    0.04500    1.000
    H89      H        0.70300    0.06600    0.20700    1.000
    H90      H        0.81400    0.06200    0.20600    1.000
    H91      H        0.69500    0.95800    0.21600    1.000
    H92      H        0.80600    0.95400    0.21500    1.000
    H93      H        0.72900    0.08000    0.28600    1.000
    H94      H        0.73100    0.08400    0.37600    1.000
    H95      H        0.77600    0.90100    0.38400    1.000
    H96      H        0.77900    0.89300    0.29500    1.000
    C1       C        0.70180    0.87490    0.49409    1.000
    C2       C        0.64570    0.82360    0.50080    1.000
    C3       C        0.55850    0.82360    0.48125    1.000
    C4       C        0.53050    0.87470    0.45435    1.000
    C5       C        0.59140    0.92310    0.44814    1.000
    C6       C        0.49360    0.77060    0.48802    1.000
    C7       C        0.50640    0.73290    0.53480    1.000
    C8       C        0.44370    0.67840    0.53798    1.000
    C9       C        0.47650    0.62280    0.55534    1.000
    C10      C        0.41790    0.57230    0.55627    1.000
    C11      C        0.29920    0.62850    0.52407    1.000
    C12      C        0.35320    0.68260    0.52380    1.000
    C13      C        0.67130    0.00610    0.56281    1.000
    C14      C        0.66650    0.01780    0.61386    1.000
    C15      C        0.74540    0.02790    0.64120    1.000
    C16      C        0.82750    0.02670    0.61616    1.000
    C17      C        0.82790    0.01720    0.56346    1.000
    C18      C        0.74370    0.03980    0.69704    1.000
    C19      C        0.74710    0.98000    0.72558    1.000
    C20      C        0.74560    0.98620    0.78213    1.000
    C21      C        0.75990    0.04100    0.80688    1.000
    C22      C        0.75940    0.04280    0.85857    1.000
    C23      C        0.73420    0.93980    0.86308    1.000
    C24      C        0.73220    0.93460    0.81185    1.000
    C25      C        0.29820    0.37490    0.00591    1.000
    C26      C        0.35430    0.32360    0.99920    1.000
    C27      C        0.44150    0.32360    0.01875    1.000
    C28      C        0.46950    0.37470    0.04565    1.000
    C29      C        0.40860    0.42310    0.05186    1.000
    C30      C        0.50640    0.27060    0.01198    1.000
    C31      C        0.49360    0.23290    0.96520    1.000
    C32      C        0.55630    0.17840    0.96202    1.000
    C33      C        0.52350    0.12280    0.94466    1.000
    C34      C        0.58210    0.07230    0.94373    1.000
    C35      C        0.70080    0.12850    0.97593    1.000
    C36      C        0.64680    0.18260    0.97620    1.000
    C37      C        0.32870    0.50610    0.93719    1.000
    C38      C        0.33350    0.51780    0.88614    1.000
    C39      C        0.25460    0.52790    0.85880    1.000
    C40      C        0.17250    0.52670    0.88384    1.000
    C41      C        0.17210    0.51720    0.93654    1.000
    C42      C        0.25630    0.53980    0.80296    1.000
    C43      C        0.25290    0.48000    0.77442    1.000
    C44      C        0.25440    0.48620    0.71787    1.000
    C45      C        0.24010    0.54100    0.69312    1.000
    C46      C        0.24060    0.54280    0.64143    1.000
    C47      C        0.26580    0.43980    0.63692    1.000
    C48      C        0.26780    0.43460    0.68815    1.000
    C49      C        0.20180    0.37490    0.50591    1.000
    C50      C        0.14570    0.32360    0.49920    1.000
    C51      C        0.05850    0.32360    0.51875    1.000
    C52      C        0.03050    0.37470    0.54565    1.000
    C53      C        0.09140    0.42310    0.55186    1.000
    C54      C        0.99360    0.27060    0.51198    1.000
    C55      C        0.00640    0.23290    0.46520    1.000
    C56      C        0.94370    0.17840    0.46202    1.000
    C57      C        0.97650    0.12280    0.44466    1.000
    C58      C        0.91790    0.07230    0.44373    1.000
    C59      C        0.79920    0.12850    0.47593    1.000
    C60      C        0.85320    0.18260    0.47620    1.000
    C61      C        0.17130    0.50610    0.43719    1.000
    C62      C        0.16650    0.51780    0.38614    1.000
    C63      C        0.24540    0.52790    0.35880    1.000
    C64      C        0.32750    0.52670    0.38384    1.000
    C65      C        0.32790    0.51720    0.43654    1.000
    C66      C        0.24370    0.53980    0.30296    1.000
    C67      C        0.24710    0.48000    0.27442    1.000
    C68      C        0.24560    0.48620    0.21787    1.000
    C69      C        0.25990    0.54100    0.19312    1.000
    C70      C        0.25940    0.54280    0.14143    1.000
    C71      C        0.23420    0.43980    0.13692    1.000
    C72      C        0.23220    0.43460    0.18815    1.000
    C73      C        0.79820    0.87490    0.99409    1.000
    C74      C        0.85430    0.82360    0.00080    1.000
    C75      C        0.94150    0.82360    0.98125    1.000
    C76      C        0.96950    0.87470    0.95435    1.000
    C77      C        0.90860    0.92310    0.94814    1.000
    C78      C        0.00640    0.77060    0.98802    1.000
    C79      C        0.99360    0.73290    0.03480    1.000
    C80      C        0.05630    0.67840    0.03798    1.000
    C81      C        0.02350    0.62280    0.05534    1.000
    C82      C        0.08210    0.57230    0.05627    1.000
    C83      C        0.20080    0.62850    0.02407    1.000
    C84      C        0.14680    0.68260    0.02380    1.000
    C85      C        0.82870    0.00610    0.06281    1.000
    C86      C        0.83350    0.01780    0.11386    1.000
    C87      C        0.75460    0.02790    0.14120    1.000
    C88      C        0.67250    0.02670    0.11616    1.000
    C89      C        0.67210    0.01720    0.06346    1.000
    C90      C        0.75630    0.03980    0.19704    1.000
    C91      C        0.75290    0.98000    0.22558    1.000
    C92      C        0.75440    0.98620    0.28213    1.000
    C93      C        0.74010    0.04100    0.30688    1.000
    C94      C        0.74060    0.04280    0.35857    1.000
    C95      C        0.76580    0.93980    0.36308    1.000
    C96      C        0.76780    0.93460    0.31185    1.000
    N1       N        0.67470    0.92312    0.46685    1.000
    N2       N        0.33130    0.57589    0.54136    1.000
    N3       N        0.75050    0.00716    0.53783    1.000
    N4       N        0.74670    0.99316    0.88688    1.000
    N5       N        0.32530    0.42312    0.03315    1.000
    N6       N        0.66870    0.07589    0.95864    1.000
    N7       N        0.24950    0.50716    0.96217    1.000
    N8       N        0.25330    0.49316    0.61312    1.000
    N9       N        0.17470    0.42312    0.53315    1.000
    N10      N        0.83130    0.07589    0.45864    1.000
    N11      N        0.25050    0.50716    0.46217    1.000
    N12      N        0.24670    0.49316    0.11312    1.000
    N13      N        0.82530    0.92312    0.96685    1.000
    N14      N        0.16870    0.57589    0.04136    1.000
    N15      N        0.74950    0.00716    0.03783    1.000
    N16      N        0.75330    0.99316    0.38688    1.000
    Cu5      Cu       0.74634    0.50134    0.46239    1.000
    Cu6      Cu       0.25366    0.00134    0.03760    1.000
    Cu7      Cu       0.24634    0.00134    0.53761    1.000
    Cu8      Cu       0.75366    0.50134    0.96239    1.000
    H97      H        0.73500    0.62500    0.51000    1.000
    H98      H        0.83200    0.71300    0.52000    1.000
    H99      H        0.03300    0.62400    0.43900    1.000
    H100     H        0.93100    0.54000    0.43000    1.000
    H101     H        0.00100    0.75800    0.45800    1.000
    H102     H        0.07100    0.71300    0.48800    1.000
    H103     H        0.00400    0.74000    0.56600    1.000
    H104     H        0.92800    0.78100    0.53700    1.000
    H105     H        0.95800    0.88100    0.56700    1.000
    H106     H        0.05700    0.96900    0.56700    1.000
    H107     H        0.26600    0.86900    0.51100    1.000
    H108     H        0.17400    0.77700    0.51300    1.000
    H109     H        0.88600    0.50200    0.54400    1.000
    H110     H        0.89500    0.48200    0.63100    1.000
    H111     H        0.61300    0.46600    0.63500    1.000
    H112     H        0.61200    0.48300    0.54500    1.000
    H113     H        0.70300    0.43400    0.70700    1.000
    H114     H        0.81400    0.43800    0.70600    1.000
    H115     H        0.69500    0.54200    0.71600    1.000
    H116     H        0.80600    0.54600    0.71500    1.000
    H117     H        0.72900    0.42000    0.78600    1.000
    H118     H        0.73100    0.41600    0.87600    1.000
    H119     H        0.77600    0.59900    0.88400    1.000
    H120     H        0.77900    0.60700    0.79500    1.000
    H121     H        0.26500    0.12500    0.99000    1.000
    H122     H        0.16800    0.21300    0.98000    1.000
    H123     H        0.96700    0.12400    0.06100    1.000
    H124     H        0.06900    0.04000    0.07000    1.000
    H125     H        0.99900    0.25800    0.04200    1.000
    H126     H        0.92900    0.21300    0.01200    1.000
    H127     H        0.99600    0.24000    0.93400    1.000
    H128     H        0.07200    0.28100    0.96300    1.000
    H129     H        0.04200    0.38100    0.93300    1.000
    H130     H        0.94300    0.46900    0.93300    1.000
    H131     H        0.73400    0.36900    0.98900    1.000
    H132     H        0.82600    0.27700    0.98700    1.000
    H133     H        0.11400    0.00200    0.95600    1.000
    H134     H        0.10500    0.98200    0.86900    1.000
    H135     H        0.38700    0.96600    0.86500    1.000
    H136     H        0.38800    0.98300    0.95500    1.000
    H137     H        0.29700    0.93400    0.79300    1.000
    H138     H        0.18600    0.93800    0.79400    1.000
    H139     H        0.30500    0.04200    0.78400    1.000
    H140     H        0.19400    0.04600    0.78500    1.000
    H141     H        0.27100    0.92000    0.71400    1.000
    H142     H        0.26900    0.91600    0.62400    1.000
    H143     H        0.22400    0.09900    0.61600    1.000
    H144     H        0.22100    0.10700    0.70500    1.000
    H145     H        0.23500    0.12500    0.49000    1.000
    H146     H        0.33200    0.21300    0.48000    1.000
    H147     H        0.53300    0.12400    0.56100    1.000
    H148     H        0.43100    0.04000    0.57000    1.000
    H149     H        0.50100    0.25800    0.54200    1.000
    H150     H        0.57100    0.21300    0.51200    1.000
    H151     H        0.50400    0.24000    0.43400    1.000
    H152     H        0.42800    0.28100    0.46300    1.000
    H153     H        0.45800    0.38100    0.43300    1.000
    H154     H        0.55700    0.46900    0.43300    1.000
    H155     H        0.76600    0.36900    0.48900    1.000
    H156     H        0.67400    0.27700    0.48700    1.000
    H157     H        0.38600    0.00200    0.45600    1.000
    H158     H        0.39500    0.98200    0.36900    1.000
    H159     H        0.11300    0.96600    0.36500    1.000
    H160     H        0.11200    0.98300    0.45500    1.000
    H161     H        0.20300    0.93400    0.29300    1.000
    H162     H        0.31400    0.93800    0.29400    1.000
    H163     H        0.19500    0.04200    0.28400    1.000
    H164     H        0.30600    0.04600    0.28500    1.000
    H165     H        0.22900    0.92000    0.21400    1.000
    H166     H        0.23100    0.91600    0.12400    1.000
    H167     H        0.27600    0.09900    0.11600    1.000
    H168     H        0.27900    0.10700    0.20500    1.000
    H169     H        0.76500    0.62500    0.01000    1.000
    H170     H        0.66800    0.71300    0.02000    1.000
    H171     H        0.46700    0.62400    0.93900    1.000
    H172     H        0.56900    0.54000    0.93000    1.000
    H173     H        0.49900    0.75800    0.95800    1.000
    H174     H        0.42900    0.71300    0.98800    1.000
    H175     H        0.49600    0.74000    0.06600    1.000
    H176     H        0.57200    0.78100    0.03700    1.000
    H177     H        0.54200    0.88100    0.06700    1.000
    H178     H        0.44300    0.96900    0.06700    1.000
    H179     H        0.23400    0.86900    0.01100    1.000
    H180     H        0.32600    0.77700    0.01300    1.000
    H181     H        0.61400    0.50200    0.04400    1.000
    H182     H        0.60500    0.48200    0.13100    1.000
    H183     H        0.88700    0.46600    0.13500    1.000
    H184     H        0.88800    0.48300    0.04500    1.000
    H185     H        0.79700    0.43400    0.20700    1.000
    H186     H        0.68600    0.43800    0.20600    1.000
    H187     H        0.80500    0.54200    0.21600    1.000
    H188     H        0.69400    0.54600    0.21500    1.000
    H189     H        0.77100    0.42000    0.28600    1.000
    H190     H        0.76900    0.41600    0.37600    1.000
    H191     H        0.72400    0.59900    0.38400    1.000
    H192     H        0.72100    0.60700    0.29500    1.000
    C97      C        0.79820    0.62510    0.49409    1.000
    C98      C        0.85430    0.67640    0.50080    1.000
    C99      C        0.94150    0.67640    0.48125    1.000
    C100     C        0.96950    0.62530    0.45435    1.000
    C101     C        0.90860    0.57690    0.44814    1.000
    C102     C        0.00640    0.72940    0.48802    1.000
    C103     C        0.99360    0.76710    0.53480    1.000
    C104     C        0.05630    0.82160    0.53798    1.000
    C105     C        0.02350    0.87720    0.55534    1.000
    C106     C        0.08210    0.92770    0.55627    1.000
    C107     C        0.20080    0.87150    0.52407    1.000
    C108     C        0.14680    0.81740    0.52380    1.000
    C109     C        0.82870    0.49390    0.56281    1.000
    C110     C        0.83350    0.48220    0.61386    1.000
    C111     C        0.75460    0.47210    0.64120    1.000
    C112     C        0.67250    0.47330    0.61616    1.000
    C113     C        0.67210    0.48280    0.56346    1.000
    C114     C        0.75630    0.46020    0.69704    1.000
    C115     C        0.75290    0.52000    0.72558    1.000
    C116     C        0.75440    0.51380    0.78213    1.000
    C117     C        0.74010    0.45900    0.80688    1.000
    C118     C        0.74060    0.45720    0.85857    1.000
    C119     C        0.76580    0.56020    0.86308    1.000
    C120     C        0.76780    0.56540    0.81185    1.000
    C121     C        0.20180    0.12510    0.00591    1.000
    C122     C        0.14570    0.17640    0.99920    1.000
    C123     C        0.05850    0.17640    0.01875    1.000
    C124     C        0.03050    0.12530    0.04565    1.000
    C125     C        0.09140    0.07690    0.05186    1.000
    C126     C        0.99360    0.22940    0.01198    1.000
    C127     C        0.00640    0.26710    0.96520    1.000
    C128     C        0.94370    0.32160    0.96202    1.000
    C129     C        0.97650    0.37720    0.94466    1.000
    C130     C        0.91790    0.42770    0.94373    1.000
    C131     C        0.79920    0.37150    0.97593    1.000
    C132     C        0.85320    0.31740    0.97620    1.000
    C133     C        0.17130    0.99390    0.93719    1.000
    C134     C        0.16650    0.98220    0.88614    1.000
    C135     C        0.24540    0.97210    0.85880    1.000
    C136     C        0.32750    0.97330    0.88384    1.000
    C137     C        0.32790    0.98280    0.93654    1.000
    C138     C        0.24370    0.96020    0.80296    1.000
    C139     C        0.24710    0.02000    0.77442    1.000
    C140     C        0.24560    0.01380    0.71787    1.000
    C141     C        0.25990    0.95900    0.69312    1.000
    C142     C        0.25940    0.95720    0.64143    1.000
    C143     C        0.23420    0.06020    0.63692    1.000
    C144     C        0.23220    0.06540    0.68815    1.000
    C145     C        0.29820    0.12510    0.50591    1.000
    C146     C        0.35430    0.17640    0.49920    1.000
    C147     C        0.44150    0.17640    0.51875    1.000
    C148     C        0.46950    0.12530    0.54565    1.000
    C149     C        0.40860    0.07690    0.55186    1.000
    C150     C        0.50640    0.22940    0.51198    1.000
    C151     C        0.49360    0.26710    0.46520    1.000
    C152     C        0.55630    0.32160    0.46202    1.000
    C153     C        0.52350    0.37720    0.44466    1.000
    C154     C        0.58210    0.42770    0.44373    1.000
    C155     C        0.70080    0.37150    0.47593    1.000
    C156     C        0.64680    0.31740    0.47620    1.000
    C157     C        0.32870    0.99390    0.43719    1.000
    C158     C        0.33350    0.98220    0.38614    1.000
    C159     C        0.25460    0.97210    0.35880    1.000
    C160     C        0.17250    0.97330    0.38384    1.000
    C161     C        0.17210    0.98280    0.43654    1.000
    C162     C        0.25630    0.96020    0.30296    1.000
    C163     C        0.25290    0.02000    0.27442    1.000
    C164     C        0.25440    0.01380    0.21787    1.000
    C165     C        0.24010    0.95900    0.19312    1.000
    C166     C        0.24060    0.95720    0.14143    1.000
    C167     C        0.26580    0.06020    0.13692    1.000
    C168     C        0.26780    0.06540    0.18815    1.000
    C169     C        0.70180    0.62510    0.99409    1.000
    C170     C        0.64570    0.67640    0.00080    1.000
    C171     C        0.55850    0.67640    0.98125    1.000
    C172     C        0.53050    0.62530    0.95435    1.000
    C173     C        0.59140    0.57690    0.94814    1.000
    C174     C        0.49360    0.72940    0.98802    1.000
    C175     C        0.50640    0.76710    0.03480    1.000
    C176     C        0.44370    0.82160    0.03798    1.000
    C177     C        0.47650    0.87720    0.05534    1.000
    C178     C        0.41790    0.92770    0.05627    1.000
    C179     C        0.29920    0.87150    0.02407    1.000
    C180     C        0.35320    0.81740    0.02380    1.000
    C181     C        0.67130    0.49390    0.06281    1.000
    C182     C        0.66650    0.48220    0.11386    1.000
    C183     C        0.74540    0.47210    0.14120    1.000
    C184     C        0.82750    0.47330    0.11616    1.000
    C185     C        0.82790    0.48280    0.06346    1.000
    C186     C        0.74370    0.46020    0.19704    1.000
    C187     C        0.74710    0.52000    0.22558    1.000
    C188     C        0.74560    0.51380    0.28213    1.000
    C189     C        0.75990    0.45900    0.30688    1.000
    C190     C        0.75940    0.45720    0.35857    1.000
    C191     C        0.73420    0.56020    0.36308    1.000
    C192     C        0.73220    0.56540    0.31185    1.000
    N17      N        0.82530    0.57688    0.46685    1.000
    N18      N        0.16870    0.92411    0.54136    1.000
    N19      N        0.74950    0.49284    0.53783    1.000
    N20      N        0.75330    0.50684    0.88688    1.000
    N21      N        0.17470    0.07688    0.03315    1.000
    N22      N        0.83130    0.42411    0.95864    1.000
    N23      N        0.25050    0.99284    0.96217    1.000
    N24      N        0.24670    0.00684    0.61312    1.000
    N25      N        0.32530    0.07688    0.53315    1.000
    N26      N        0.66870    0.42411    0.45864    1.000
    N27      N        0.24950    0.99284    0.46217    1.000
    N28      N        0.25330    0.00684    0.11312    1.000
    N29      N        0.67470    0.57688    0.96685    1.000
    N30      N        0.33130    0.92411    0.04136    1.000
    N31      N        0.75050    0.49284    0.03783    1.000
    N32      N        0.74670    0.50684    0.38688    1.000
