# CIF file generated by openbabel 3.1.0, see https://openbabel.org
data_I
_chemical_name_common 'HAPVEB_clean'
_cell_length_a 11.628
_cell_length_b 15.578
_cell_length_c 13.065
_cell_angle_alpha 90
_cell_angle_beta 90
_cell_angle_gamma 90
_space_group_name_H-M_alt 'P 1'
_space_group_name_Hall 'P 1'
loop_
    _symmetry_equiv_pos_as_xyz
    x,y,z
loop_
    _atom_site_label
    _atom_site_type_symbol
    _atom_site_fract_x
    _atom_site_fract_y
    _atom_site_fract_z
    _atom_site_occupancy
    Nd1      Nd       0.75000    0.71430    0.06014    1.000
    Nd2      Nd       0.25000    0.78570    0.56014    1.000
    Nd3      Nd       0.25000    0.28570    0.93986    1.000
    Nd4      Nd       0.75000    0.21430    0.43986    1.000
    U1       U        0.75000    0.75393    0.34056    1.000
    U2       U        0.25000    0.74607    0.84056    1.000
    U3       U        0.25000    0.24607    0.65944    1.000
    U4       U        0.75000    0.25393    0.15944    1.000
    U5       U        0.00000    0.00000    0.00000    1.000
    U6       U        0.00000    0.50000    0.50000    1.000
    U7       U        0.50000    0.00000    0.00000    1.000
    U8       U        0.50000    0.50000    0.50000    1.000
    C1       C        0.87050    0.76950    0.71700    1.000
    C2       C        0.00120    0.76620    0.71710    1.000
    C3       C        0.81010    0.80940    0.79530    1.000
    C4       C        0.87300    0.85440    0.88110    1.000
    C5       C        0.87480    0.67320    0.56360    1.000
    C6       C        0.80980    0.72860    0.63830    1.000
    C7       C        0.12950    0.73050    0.21700    1.000
    C8       C        0.99880    0.73380    0.21710    1.000
    C9       C        0.18990    0.69060    0.29530    1.000
    C10      C        0.12700    0.64560    0.38110    1.000
    C11      C        0.12520    0.82680    0.06360    1.000
    C12      C        0.19020    0.77140    0.13830    1.000
    C13      C        0.37050    0.23050    0.28300    1.000
    C14      C        0.50120    0.23380    0.28290    1.000
    C15      C        0.31010    0.19060    0.20470    1.000
    C16      C        0.37300    0.14560    0.11890    1.000
    C17      C        0.37480    0.32680    0.43640    1.000
    C18      C        0.30980    0.27140    0.36170    1.000
    C19      C        0.62950    0.26950    0.78300    1.000
    C20      C        0.49880    0.26620    0.78290    1.000
    C21      C        0.68990    0.30940    0.70470    1.000
    C22      C        0.62700    0.35440    0.61890    1.000
    C23      C        0.62520    0.17320    0.93640    1.000
    C24      C        0.69020    0.22860    0.86170    1.000
    C25      C        0.12950    0.23050    0.28300    1.000
    C26      C        0.99880    0.23380    0.28290    1.000
    C27      C        0.18990    0.19060    0.20470    1.000
    C28      C        0.12700    0.14560    0.11890    1.000
    C29      C        0.12520    0.32680    0.43640    1.000
    C30      C        0.19020    0.27140    0.36170    1.000
    C31      C        0.87050    0.26950    0.78300    1.000
    C32      C        0.00120    0.26620    0.78290    1.000
    C33      C        0.81010    0.30940    0.70470    1.000
    C34      C        0.87300    0.35440    0.61890    1.000
    C35      C        0.87480    0.17320    0.93640    1.000
    C36      C        0.80980    0.22860    0.86170    1.000
    C37      C        0.62950    0.76950    0.71700    1.000
    C38      C        0.49880    0.76620    0.71710    1.000
    C39      C        0.68990    0.80940    0.79530    1.000
    C40      C        0.62700    0.85440    0.88110    1.000
    C41      C        0.62520    0.67320    0.56360    1.000
    C42      C        0.69020    0.72860    0.63830    1.000
    C43      C        0.37050    0.73050    0.21700    1.000
    C44      C        0.50120    0.73380    0.21710    1.000
    C45      C        0.31010    0.69060    0.29530    1.000
    C46      C        0.37300    0.64560    0.38110    1.000
    C47      C        0.37480    0.82680    0.06360    1.000
    C48      C        0.30980    0.77140    0.13830    1.000
    O1       O        0.92610    0.92240    0.85780    1.000
    O2       O        0.86950    0.82510    0.96900    1.000
    O3       O        0.93030    0.61280    0.60370    1.000
    O4       O        0.86820    0.68540    0.46990    1.000
    O5       O        0.04700    0.73800    0.79860    1.000
    O6       O        0.05210    0.79110    0.63880    1.000
    O7       O        0.07390    0.57760    0.35780    1.000
    O8       O        0.13050    0.67490    0.46900    1.000
    O9       O        0.06970    0.88720    0.10370    1.000
    O10      O        0.13180    0.81460    0.96990    1.000
    O11      O        0.95300    0.76200    0.29860    1.000
    O12      O        0.94790    0.70890    0.13880    1.000
    O13      O        0.42610    0.07760    0.14220    1.000
    O14      O        0.36950    0.17490    0.03100    1.000
    O15      O        0.43030    0.38720    0.39630    1.000
    O16      O        0.36820    0.31460    0.53010    1.000
    O17      O        0.54700    0.26200    0.20140    1.000
    O18      O        0.55210    0.20890    0.36120    1.000
    O19      O        0.57390    0.42240    0.64220    1.000
    O20      O        0.63050    0.32510    0.53100    1.000
    O21      O        0.56970    0.11280    0.89630    1.000
    O22      O        0.63180    0.18540    0.03010    1.000
    O23      O        0.45300    0.23800    0.70140    1.000
    O24      O        0.44790    0.29110    0.86120    1.000
    O25      O        0.07390    0.07760    0.14220    1.000
    O26      O        0.13050    0.17490    0.03100    1.000
    O27      O        0.06970    0.38720    0.39630    1.000
    O28      O        0.13180    0.31460    0.53010    1.000
    O29      O        0.95300    0.26200    0.20140    1.000
    O30      O        0.94790    0.20890    0.36120    1.000
    O31      O        0.92610    0.42240    0.64220    1.000
    O32      O        0.86950    0.32510    0.53100    1.000
    O33      O        0.93030    0.11280    0.89630    1.000
    O34      O        0.86820    0.18540    0.03010    1.000
    O35      O        0.04700    0.23800    0.70140    1.000
    O36      O        0.05210    0.29110    0.86120    1.000
    O37      O        0.57390    0.92240    0.85780    1.000
    O38      O        0.63050    0.82510    0.96900    1.000
    O39      O        0.56970    0.61280    0.60370    1.000
    O40      O        0.63180    0.68540    0.46990    1.000
    O41      O        0.45300    0.73800    0.79860    1.000
    O42      O        0.44790    0.79110    0.63880    1.000
    O43      O        0.42610    0.57760    0.35780    1.000
    O44      O        0.36950    0.67490    0.46900    1.000
    O45      O        0.43030    0.88720    0.10370    1.000
    O46      O        0.36820    0.81460    0.96990    1.000
    O47      O        0.54700    0.76200    0.29860    1.000
    O48      O        0.55210    0.70890    0.13880    1.000
    O49      O        0.75000    0.65970    0.26370    1.000
    O50      O        0.75000    0.82260    0.18840    1.000
    O51      O        0.25000    0.84030    0.76370    1.000
    O52      O        0.25000    0.67740    0.68840    1.000
    O53      O        0.25000    0.34030    0.73630    1.000
    O54      O        0.25000    0.17740    0.81160    1.000
    O55      O        0.75000    0.15970    0.23630    1.000
    O56      O        0.75000    0.32260    0.31160    1.000
