# CIF file generated by openbabel 3.1.0, see https://openbabel.org
data_I
_chemical_name_common 'image0'
_cell_length_a 33.13
_cell_length_b 13.572
_cell_length_c 14.049
_cell_angle_alpha 90
_cell_angle_beta 101.324
_cell_angle_gamma 90
_space_group_name_H-M_alt 'P 1'
_space_group_name_Hall 'P 1'
loop_
    _symmetry_equiv_pos_as_xyz
    x,y,z
loop_
    _atom_site_label
    _atom_site_type_symbol
    _atom_site_fract_x
    _atom_site_fract_y
    _atom_site_fract_z
    _atom_site_occupancy
    C1       C        0.24734    0.92420    0.92600    1.000
    C2       C        0.22109    0.99750    0.86360    1.000
    C3       C        0.23778    0.05380    0.79890    1.000
    H1       H        0.26520    0.04620    0.79440    1.000
    C4       C        0.21328    0.12160    0.74090    1.000
    C5       C        0.17282    0.13620    0.75180    1.000
    H2       H        0.15670    0.18300    0.71340    1.000
    C6       C        0.15605    0.08310    0.81800    1.000
    C7       C        0.18012    0.01160    0.87220    1.000
    H3       H        0.16890    0.97250    0.91480    1.000
    C8       C        0.22974    0.17810    0.66430    1.000
    C9       C        0.11361    0.10290    0.83320    1.000
    C10      C        0.09764    0.19870    0.82160    1.000
    H4       H        0.11310    0.24860    0.80090    1.000
    C11      C        0.05892    0.21990    0.84070    1.000
    H5       H        0.04890    0.28390    0.83210    1.000
    C12      C        0.03549    0.14990    0.87140    1.000
    C13      C        0.05062    0.05270    0.88170    1.000
    H6       H        0.03490    0.00300    0.90200    1.000
    C14      C        0.08964    0.03090    0.86130    1.000
    H7       H        0.09920    0.96640    0.86710    1.000
    C15      C        0.99540    0.17350    0.90040    1.000
    C16      C        0.98680    0.26670    0.92380    1.000
    H8       H        0.00620    0.31600    0.92240    1.000
    C17      C        0.94970    0.29070    0.94990    1.000
    H9       H        0.94400    0.35610    0.96220    1.000
    C18      C        0.92128    0.21900    0.95760    1.000
    C19      C        0.92915    0.12610    0.93150    1.000
    H10      H        0.90960    0.07730    0.93300    1.000
    C20      C        0.96583    0.10110    0.90240    1.000
    H11      H        0.97040    0.03670    0.88450    1.000
    C21      C        0.88254    0.24450    0.99190    1.000
    O1       O        0.28530    0.93850    0.94870    1.000
    O2       O        0.23082    0.84810    0.95560    1.000
    O3       O        0.86209    0.17530    0.01830    1.000
    O4       O        0.87138    0.33130    0.99340    1.000
    O5       O        0.20697    0.24190    0.61770    1.000
    O6       O        0.26590    0.15810    0.65530    1.000
    Tb1      Tb       0.30779    0.79391    0.04524    1.000
    C22      C        0.74734    0.42420    0.92600    1.000
    C23      C        0.72109    0.49750    0.86360    1.000
    C24      C        0.73778    0.55380    0.79890    1.000
    H12      H        0.76520    0.54620    0.79440    1.000
    C25      C        0.71328    0.62160    0.74090    1.000
    C26      C        0.67282    0.63620    0.75180    1.000
    H13      H        0.65670    0.68300    0.71340    1.000
    C27      C        0.65605    0.58310    0.81800    1.000
    C28      C        0.68012    0.51160    0.87220    1.000
    H14      H        0.66890    0.47250    0.91480    1.000
    C29      C        0.72974    0.67810    0.66430    1.000
    C30      C        0.61361    0.60290    0.83320    1.000
    C31      C        0.59764    0.69870    0.82160    1.000
    H15      H        0.61310    0.74860    0.80090    1.000
    C32      C        0.55892    0.71990    0.84070    1.000
    H16      H        0.54890    0.78390    0.83210    1.000
    C33      C        0.53549    0.64990    0.87140    1.000
    C34      C        0.55062    0.55270    0.88170    1.000
    H17      H        0.53490    0.50300    0.90200    1.000
    C35      C        0.58964    0.53090    0.86130    1.000
    H18      H        0.59920    0.46640    0.86710    1.000
    C36      C        0.49540    0.67350    0.90040    1.000
    C37      C        0.48680    0.76670    0.92380    1.000
    H19      H        0.50620    0.81600    0.92240    1.000
    C38      C        0.44970    0.79070    0.94990    1.000
    H20      H        0.44400    0.85610    0.96220    1.000
    C39      C        0.42128    0.71900    0.95760    1.000
    C40      C        0.42915    0.62610    0.93150    1.000
    H21      H        0.40960    0.57730    0.93300    1.000
    C41      C        0.46583    0.60110    0.90240    1.000
    H22      H        0.47040    0.53670    0.88450    1.000
    C42      C        0.38254    0.74450    0.99190    1.000
    O7       O        0.78530    0.43850    0.94870    1.000
    O8       O        0.73082    0.34810    0.95560    1.000
    O9       O        0.36209    0.67530    0.01830    1.000
    O10      O        0.37138    0.83130    0.99340    1.000
    O11      O        0.70697    0.74190    0.61770    1.000
    O12      O        0.76590    0.65810    0.65530    1.000
    Tb2      Tb       0.80779    0.29391    0.04524    1.000
    C43      C        0.75266    0.92420    0.57400    1.000
    C44      C        0.77891    0.99750    0.63640    1.000
    C45      C        0.76222    0.05380    0.70110    1.000
    H23      H        0.73480    0.04620    0.70560    1.000
    C46      C        0.78672    0.12160    0.75910    1.000
    C47      C        0.82718    0.13620    0.74820    1.000
    H24      H        0.84330    0.18300    0.78660    1.000
    C48      C        0.84395    0.08310    0.68200    1.000
    C49      C        0.81988    0.01160    0.62780    1.000
    H25      H        0.83110    0.97250    0.58520    1.000
    C50      C        0.77026    0.17810    0.83570    1.000
    C51      C        0.88639    0.10290    0.66680    1.000
    C52      C        0.90236    0.19870    0.67840    1.000
    H26      H        0.88690    0.24860    0.69910    1.000
    C53      C        0.94108    0.21990    0.65930    1.000
    H27      H        0.95110    0.28390    0.66790    1.000
    C54      C        0.96451    0.14990    0.62860    1.000
    C55      C        0.94938    0.05270    0.61830    1.000
    H28      H        0.96510    0.00300    0.59800    1.000
    C56      C        0.91036    0.03090    0.63870    1.000
    H29      H        0.90080    0.96640    0.63290    1.000
    C57      C        0.00460    0.17350    0.59960    1.000
    C58      C        0.01320    0.26670    0.57620    1.000
    H30      H        0.99380    0.31600    0.57760    1.000
    C59      C        0.05030    0.29070    0.55010    1.000
    H31      H        0.05600    0.35610    0.53780    1.000
    C60      C        0.07872    0.21900    0.54240    1.000
    C61      C        0.07085    0.12610    0.56850    1.000
    H32      H        0.09040    0.07730    0.56700    1.000
    C62      C        0.03417    0.10110    0.59760    1.000
    H33      H        0.02960    0.03670    0.61550    1.000
    C63      C        0.11746    0.24450    0.50810    1.000
    O13      O        0.71470    0.93850    0.55130    1.000
    O14      O        0.76918    0.84810    0.54440    1.000
    O15      O        0.13791    0.17530    0.48170    1.000
    O16      O        0.12862    0.33130    0.50660    1.000
    O17      O        0.79303    0.24190    0.88230    1.000
    O18      O        0.73410    0.15810    0.84470    1.000
    Tb3      Tb       0.69221    0.79391    0.45476    1.000
    C64      C        0.25266    0.42420    0.57400    1.000
    C65      C        0.27891    0.49750    0.63640    1.000
    C66      C        0.26222    0.55380    0.70110    1.000
    H34      H        0.23480    0.54620    0.70560    1.000
    C67      C        0.28672    0.62160    0.75910    1.000
    C68      C        0.32718    0.63620    0.74820    1.000
    H35      H        0.34330    0.68300    0.78660    1.000
    C69      C        0.34395    0.58310    0.68200    1.000
    C70      C        0.31988    0.51160    0.62780    1.000
    H36      H        0.33110    0.47250    0.58520    1.000
    C71      C        0.27026    0.67810    0.83570    1.000
    C72      C        0.38639    0.60290    0.66680    1.000
    C73      C        0.40236    0.69870    0.67840    1.000
    H37      H        0.38690    0.74860    0.69910    1.000
    C74      C        0.44108    0.71990    0.65930    1.000
    H38      H        0.45110    0.78390    0.66790    1.000
    C75      C        0.46451    0.64990    0.62860    1.000
    C76      C        0.44938    0.55270    0.61830    1.000
    H39      H        0.46510    0.50300    0.59800    1.000
    C77      C        0.41036    0.53090    0.63870    1.000
    H40      H        0.40080    0.46640    0.63290    1.000
    C78      C        0.50460    0.67350    0.59960    1.000
    C79      C        0.51320    0.76670    0.57620    1.000
    H41      H        0.49380    0.81600    0.57760    1.000
    C80      C        0.55030    0.79070    0.55010    1.000
    H42      H        0.55600    0.85610    0.53780    1.000
    C81      C        0.57872    0.71900    0.54240    1.000
    C82      C        0.57085    0.62610    0.56850    1.000
    H43      H        0.59040    0.57730    0.56700    1.000
    C83      C        0.53417    0.60110    0.59760    1.000
    H44      H        0.52960    0.53670    0.61550    1.000
    C84      C        0.61746    0.74450    0.50810    1.000
    O19      O        0.21470    0.43850    0.55130    1.000
    O20      O        0.26918    0.34810    0.54440    1.000
    O21      O        0.63791    0.67530    0.48170    1.000
    O22      O        0.62862    0.83130    0.50660    1.000
    O23      O        0.29303    0.74190    0.88230    1.000
    O24      O        0.23410    0.65810    0.84470    1.000
    Tb4      Tb       0.19221    0.29391    0.45476    1.000
    C85      C        0.75266    0.07580    0.07400    1.000
    C86      C        0.77891    0.00250    0.13640    1.000
    C87      C        0.76222    0.94620    0.20110    1.000
    H45      H        0.73480    0.95380    0.20560    1.000
    C88      C        0.78672    0.87840    0.25910    1.000
    C89      C        0.82718    0.86380    0.24820    1.000
    H46      H        0.84330    0.81700    0.28660    1.000
    C90      C        0.84395    0.91690    0.18200    1.000
    C91      C        0.81988    0.98840    0.12780    1.000
    H47      H        0.83110    0.02750    0.08520    1.000
    C92      C        0.77026    0.82190    0.33570    1.000
    C93      C        0.88639    0.89710    0.16680    1.000
    C94      C        0.90236    0.80130    0.17840    1.000
    H48      H        0.88690    0.75140    0.19910    1.000
    C95      C        0.94108    0.78010    0.15930    1.000
    H49      H        0.95110    0.71610    0.16790    1.000
    C96      C        0.96451    0.85010    0.12860    1.000
    C97      C        0.94938    0.94730    0.11830    1.000
    H50      H        0.96510    0.99700    0.09800    1.000
    C98      C        0.91036    0.96910    0.13870    1.000
    H51      H        0.90080    0.03360    0.13290    1.000
    C99      C        0.00460    0.82650    0.09960    1.000
    C100     C        0.01320    0.73330    0.07620    1.000
    H52      H        0.99380    0.68400    0.07760    1.000
    C101     C        0.05030    0.70930    0.05010    1.000
    H53      H        0.05600    0.64390    0.03780    1.000
    C102     C        0.07872    0.78100    0.04240    1.000
    C103     C        0.07085    0.87390    0.06850    1.000
    H54      H        0.09040    0.92270    0.06700    1.000
    C104     C        0.03417    0.89890    0.09760    1.000
    H55      H        0.02960    0.96330    0.11550    1.000
    C105     C        0.11746    0.75550    0.00810    1.000
    O25      O        0.71470    0.06150    0.05130    1.000
    O26      O        0.76918    0.15190    0.04440    1.000
    O27      O        0.13791    0.82470    0.98170    1.000
    O28      O        0.12862    0.66870    0.00660    1.000
    O29      O        0.79303    0.75810    0.38230    1.000
    O30      O        0.73410    0.84190    0.34470    1.000
    Tb5      Tb       0.69221    0.20609    0.95476    1.000
    C106     C        0.25266    0.57580    0.07400    1.000
    C107     C        0.27891    0.50250    0.13640    1.000
    C108     C        0.26222    0.44620    0.20110    1.000
    H56      H        0.23480    0.45380    0.20560    1.000
    C109     C        0.28672    0.37840    0.25910    1.000
    C110     C        0.32718    0.36380    0.24820    1.000
    H57      H        0.34330    0.31700    0.28660    1.000
    C111     C        0.34395    0.41690    0.18200    1.000
    C112     C        0.31988    0.48840    0.12780    1.000
    H58      H        0.33110    0.52750    0.08520    1.000
    C113     C        0.27026    0.32190    0.33570    1.000
    C114     C        0.38639    0.39710    0.16680    1.000
    C115     C        0.40236    0.30130    0.17840    1.000
    H59      H        0.38690    0.25140    0.19910    1.000
    C116     C        0.44108    0.28010    0.15930    1.000
    H60      H        0.45110    0.21610    0.16790    1.000
    C117     C        0.46451    0.35010    0.12860    1.000
    C118     C        0.44938    0.44730    0.11830    1.000
    H61      H        0.46510    0.49700    0.09800    1.000
    C119     C        0.41036    0.46910    0.13870    1.000
    H62      H        0.40080    0.53360    0.13290    1.000
    C120     C        0.50460    0.32650    0.09960    1.000
    C121     C        0.51320    0.23330    0.07620    1.000
    H63      H        0.49380    0.18400    0.07760    1.000
    C122     C        0.55030    0.20930    0.05010    1.000
    H64      H        0.55600    0.14390    0.03780    1.000
    C123     C        0.57872    0.28100    0.04240    1.000
    C124     C        0.57085    0.37390    0.06850    1.000
    H65      H        0.59040    0.42270    0.06700    1.000
    C125     C        0.53417    0.39890    0.09760    1.000
    H66      H        0.52960    0.46330    0.11550    1.000
    C126     C        0.61746    0.25550    0.00810    1.000
    O31      O        0.21470    0.56150    0.05130    1.000
    O32      O        0.26918    0.65190    0.04440    1.000
    O33      O        0.63791    0.32470    0.98170    1.000
    O34      O        0.62862    0.16870    0.00660    1.000
    O35      O        0.29303    0.25810    0.38230    1.000
    O36      O        0.23410    0.34190    0.34470    1.000
    Tb6      Tb       0.19221    0.70609    0.95476    1.000
    C127     C        0.24734    0.07580    0.42600    1.000
    C128     C        0.22109    0.00250    0.36360    1.000
    C129     C        0.23778    0.94620    0.29890    1.000
    H67      H        0.26520    0.95380    0.29440    1.000
    C130     C        0.21328    0.87840    0.24090    1.000
    C131     C        0.17282    0.86380    0.25180    1.000
    H68      H        0.15670    0.81700    0.21340    1.000
    C132     C        0.15605    0.91690    0.31800    1.000
    C133     C        0.18012    0.98840    0.37220    1.000
    H69      H        0.16890    0.02750    0.41480    1.000
    C134     C        0.22974    0.82190    0.16430    1.000
    C135     C        0.11361    0.89710    0.33320    1.000
    C136     C        0.09764    0.80130    0.32160    1.000
    H70      H        0.11310    0.75140    0.30090    1.000
    C137     C        0.05892    0.78010    0.34070    1.000
    H71      H        0.04890    0.71610    0.33210    1.000
    C138     C        0.03549    0.85010    0.37140    1.000
    C139     C        0.05062    0.94730    0.38170    1.000
    H72      H        0.03490    0.99700    0.40200    1.000
    C140     C        0.08964    0.96910    0.36130    1.000
    H73      H        0.09920    0.03360    0.36710    1.000
    C141     C        0.99540    0.82650    0.40040    1.000
    C142     C        0.98680    0.73330    0.42380    1.000
    H74      H        0.00620    0.68400    0.42240    1.000
    C143     C        0.94970    0.70930    0.44990    1.000
    H75      H        0.94400    0.64390    0.46220    1.000
    C144     C        0.92128    0.78100    0.45760    1.000
    C145     C        0.92915    0.87390    0.43150    1.000
    H76      H        0.90960    0.92270    0.43300    1.000
    C146     C        0.96583    0.89890    0.40240    1.000
    H77      H        0.97040    0.96330    0.38450    1.000
    C147     C        0.88254    0.75550    0.49190    1.000
    O37      O        0.28530    0.06150    0.44870    1.000
    O38      O        0.23082    0.15190    0.45560    1.000
    O39      O        0.86209    0.82470    0.51830    1.000
    O40      O        0.87138    0.66870    0.49340    1.000
    O41      O        0.20697    0.75810    0.11770    1.000
    O42      O        0.26590    0.84190    0.15530    1.000
    Tb7      Tb       0.30779    0.20609    0.54524    1.000
    C148     C        0.74734    0.57580    0.42600    1.000
    C149     C        0.72109    0.50250    0.36360    1.000
    C150     C        0.73778    0.44620    0.29890    1.000
    H78      H        0.76520    0.45380    0.29440    1.000
    C151     C        0.71328    0.37840    0.24090    1.000
    C152     C        0.67282    0.36380    0.25180    1.000
    H79      H        0.65670    0.31700    0.21340    1.000
    C153     C        0.65605    0.41690    0.31800    1.000
    C154     C        0.68012    0.48840    0.37220    1.000
    H80      H        0.66890    0.52750    0.41480    1.000
    C155     C        0.72974    0.32190    0.16430    1.000
    C156     C        0.61361    0.39710    0.33320    1.000
    C157     C        0.59764    0.30130    0.32160    1.000
    H81      H        0.61310    0.25140    0.30090    1.000
    C158     C        0.55892    0.28010    0.34070    1.000
    H82      H        0.54890    0.21610    0.33210    1.000
    C159     C        0.53549    0.35010    0.37140    1.000
    C160     C        0.55062    0.44730    0.38170    1.000
    H83      H        0.53490    0.49700    0.40200    1.000
    C161     C        0.58964    0.46910    0.36130    1.000
    H84      H        0.59920    0.53360    0.36710    1.000
    C162     C        0.49540    0.32650    0.40040    1.000
    C163     C        0.48680    0.23330    0.42380    1.000
    H85      H        0.50620    0.18400    0.42240    1.000
    C164     C        0.44970    0.20930    0.44990    1.000
    H86      H        0.44400    0.14390    0.46220    1.000
    C165     C        0.42128    0.28100    0.45760    1.000
    C166     C        0.42915    0.37390    0.43150    1.000
    H87      H        0.40960    0.42270    0.43300    1.000
    C167     C        0.46583    0.39890    0.40240    1.000
    H88      H        0.47040    0.46330    0.38450    1.000
    C168     C        0.38254    0.25550    0.49190    1.000
    O43      O        0.78530    0.56150    0.44870    1.000
    O44      O        0.73082    0.65190    0.45560    1.000
    O45      O        0.36209    0.32470    0.51830    1.000
    O46      O        0.37138    0.16870    0.49340    1.000
    O47      O        0.70697    0.25810    0.11770    1.000
    O48      O        0.76590    0.34190    0.15530    1.000
    Tb8      Tb       0.80779    0.70609    0.54524    1.000
