# CIF file generated by openbabel 3.1.0, see https://openbabel.org
data_I
_chemical_name_common 'WAWGOQ_clean'
_cell_length_a 16.9381
_cell_length_b 16.9381
_cell_length_c 32.598
_cell_angle_alpha 87.7734
_cell_angle_beta 87.7734
_cell_angle_gamma 70.3282
_space_group_name_H-M_alt 'P 1'
_space_group_name_Hall 'P 1'
loop_
    _symmetry_equiv_pos_as_xyz
    x,y,z
loop_
    _atom_site_label
    _atom_site_type_symbol
    _atom_site_fract_x
    _atom_site_fract_y
    _atom_site_fract_z
    _atom_site_occupancy
    Zn1      Zn       0.31359    0.85593    0.44289    1.000
    Zn2      Zn       0.85126    0.79706    0.19473    1.000
    Zn3      Zn       0.85593    0.31359    0.94289    1.000
    Zn4      Zn       0.79706    0.85126    0.69473    1.000
    H1       H        0.29280    0.78320    0.29290    1.000
    H2       H        0.43440    0.78420    0.29640    1.000
    H3       H        0.62550    0.82370    0.41740    1.000
    H4       H        0.60390    0.84630    0.49130    1.000
    H5       H        0.34620    0.88680    0.59530    1.000
    H6       H        0.20310    0.88570    0.59260    1.000
    H7       H        0.01900    0.83900    0.47560    1.000
    H8       H        0.04400    0.80880    0.40160    1.000
    H9       H        0.07800    0.91180    0.32160    1.000
    H10      H        0.99640    0.87960    0.27310    1.000
    H11      H        0.12620    0.63860    0.28600    1.000
    H12      H        0.20590    0.66770    0.33590    1.000
    H13      H        0.99860    0.67240    0.20460    1.000
    H14      H        0.50500    0.90620    0.31230    1.000
    H15      H        0.61420    0.88540    0.26550    1.000
    H16      H        0.74290    0.67310    0.32220    1.000
    H17      H        0.62980    0.69180    0.36870    1.000
    H18      H        0.70770    0.87810    0.23620    1.000
    H19      H        0.43910    0.99470    0.56040    1.000
    H20      H        0.51700    0.00980    0.61690    1.000
    H21      H        0.64750    0.76550    0.61330    1.000
    H22      H        0.56880    0.75140    0.55970    1.000
    H23      H        0.02430    0.98910    0.53890    1.000
    H24      H        0.91760    0.99600    0.58530    1.000
    H25      H        0.01970    0.75450    0.61120    1.000
    H26      H        0.12640    0.74260    0.56180    1.000
    H27      H        0.78320    0.29280    0.79290    1.000
    H28      H        0.78420    0.43440    0.79640    1.000
    H29      H        0.82370    0.62550    0.91740    1.000
    H30      H        0.84630    0.60390    0.99130    1.000
    H31      H        0.88680    0.34620    0.09530    1.000
    H32      H        0.88570    0.20310    0.09260    1.000
    H33      H        0.83900    0.01900    0.97560    1.000
    H34      H        0.80880    0.04400    0.90160    1.000
    H35      H        0.91180    0.07800    0.82160    1.000
    H36      H        0.87960    0.99640    0.77310    1.000
    H37      H        0.63860    0.12620    0.78600    1.000
    H38      H        0.66770    0.20590    0.83590    1.000
    H39      H        0.67240    0.99860    0.70460    1.000
    H40      H        0.90620    0.50500    0.81230    1.000
    H41      H        0.88540    0.61420    0.76550    1.000
    H42      H        0.67310    0.74290    0.82220    1.000
    H43      H        0.69180    0.62980    0.86870    1.000
    H44      H        0.87810    0.70770    0.73620    1.000
    H45      H        0.99470    0.43910    0.06040    1.000
    H46      H        0.00980    0.51700    0.11690    1.000
    H47      H        0.76550    0.64750    0.11330    1.000
    H48      H        0.75140    0.56880    0.05970    1.000
    H49      H        0.98910    0.02430    0.03890    1.000
    H50      H        0.99600    0.91760    0.08530    1.000
    H51      H        0.75450    0.01970    0.11120    1.000
    H52      H        0.74260    0.12640    0.06180    1.000
    C1       C        0.16136    0.82396    0.40680    1.000
    C2       C        0.19901    0.81001    0.36784    1.000
    C3       C        0.27920    0.80680    0.35672    1.000
    C4       C        0.31800    0.79200    0.31635    1.000
    C5       C        0.39560    0.79280    0.31820    1.000
    C6       C        0.40960    0.80920    0.36017    1.000
    C7       C        0.48418    0.81198    0.37437    1.000
    C8       C        0.49996    0.82276    0.41644    1.000
    C9       C        0.57655    0.82835    0.43258    1.000
    C10      C        0.56480    0.84140    0.47321    1.000
    C11      C        0.48053    0.84613    0.48306    1.000
    C12      C        0.44143    0.86143    0.52207    1.000
    C13      C        0.35977    0.86677    0.53181    1.000
    C14      C        0.32040    0.87960    0.57177    1.000
    C15      C        0.24170    0.87950    0.57078    1.000
    C16      C        0.23003    0.86763    0.52818    1.000
    C17      C        0.15586    0.85966    0.51408    1.000
    C18      C        0.14164    0.84544    0.47362    1.000
    C19      C        0.06714    0.83554    0.45996    1.000
    C20      C        0.08106    0.82006    0.41886    1.000
    C21      C        0.14593    0.79493    0.33456    1.000
    C22      C        0.08750    0.85610    0.31532    1.000
    C23      C        0.03980    0.83680    0.28526    1.000
    C24      C        0.05625    0.75665    0.27384    1.000
    C25      C        0.11630    0.69390    0.29310    1.000
    C26      C        0.16350    0.71090    0.32330    1.000
    C27      C        0.00100    0.74180    0.24136    1.000
    C28      C        0.55370    0.80130    0.34513    1.000
    C29      C        0.55190    0.85810    0.31460    1.000
    C30      C        0.61840    0.84600    0.28674    1.000
    C31      C        0.68876    0.77916    0.28953    1.000
    C32      C        0.69480    0.72000    0.31992    1.000
    C33      C        0.62640    0.73180    0.34782    1.000
    C34      C        0.76410    0.76370    0.25995    1.000
    C35      C        0.49692    0.86952    0.55622    1.000
    C36      C        0.48050    0.94850    0.57161    1.000
    C37      C        0.52855    0.95775    0.60514    1.000
    C38      C        0.59280    0.88820    0.62007    1.000
    C39      C        0.60560    0.81260    0.60312    1.000
    C40      C        0.55790    0.80370    0.57094    1.000
    C41      C        0.64380    0.90080    0.65337    1.000
    C42      C        0.08516    0.86756    0.54452    1.000
    C43      C        0.02370    0.94030    0.55283    1.000
    C44      C        0.95990    0.94490    0.58115    1.000
    C45      C        0.95837    0.87597    0.60302    1.000
    C46      C        0.02030    0.80190    0.59598    1.000
    C47      C        0.08510    0.79410    0.56658    1.000
    C48      C        0.89220    0.87780    0.63455    1.000
    C49      C        0.82396    0.16136    0.90680    1.000
    C50      C        0.81001    0.19901    0.86784    1.000
    C51      C        0.80680    0.27920    0.85672    1.000
    C52      C        0.79200    0.31800    0.81635    1.000
    C53      C        0.79280    0.39560    0.81820    1.000
    C54      C        0.80920    0.40960    0.86017    1.000
    C55      C        0.81198    0.48418    0.87437    1.000
    C56      C        0.82276    0.49996    0.91644    1.000
    C57      C        0.82835    0.57655    0.93258    1.000
    C58      C        0.84140    0.56480    0.97321    1.000
    C59      C        0.84613    0.48053    0.98306    1.000
    C60      C        0.86143    0.44143    0.02207    1.000
    C61      C        0.86677    0.35977    0.03181    1.000
    C62      C        0.87960    0.32040    0.07177    1.000
    C63      C        0.87950    0.24170    0.07078    1.000
    C64      C        0.86763    0.23003    0.02818    1.000
    C65      C        0.85966    0.15586    0.01408    1.000
    C66      C        0.84544    0.14164    0.97362    1.000
    C67      C        0.83554    0.06714    0.95996    1.000
    C68      C        0.82006    0.08106    0.91886    1.000
    C69      C        0.79493    0.14593    0.83456    1.000
    C70      C        0.85610    0.08750    0.81532    1.000
    C71      C        0.83680    0.03980    0.78526    1.000
    C72      C        0.75665    0.05625    0.77384    1.000
    C73      C        0.69390    0.11630    0.79310    1.000
    C74      C        0.71090    0.16350    0.82330    1.000
    C75      C        0.74180    0.00100    0.74136    1.000
    C76      C        0.80130    0.55370    0.84513    1.000
    C77      C        0.85810    0.55190    0.81460    1.000
    C78      C        0.84600    0.61840    0.78674    1.000
    C79      C        0.77916    0.68876    0.78953    1.000
    C80      C        0.72000    0.69480    0.81992    1.000
    C81      C        0.73180    0.62640    0.84782    1.000
    C82      C        0.76370    0.76410    0.75995    1.000
    C83      C        0.86952    0.49692    0.05622    1.000
    C84      C        0.94850    0.48050    0.07161    1.000
    C85      C        0.95775    0.52855    0.10514    1.000
    C86      C        0.88820    0.59280    0.12007    1.000
    C87      C        0.81260    0.60560    0.10312    1.000
    C88      C        0.80370    0.55790    0.07094    1.000
    C89      C        0.90080    0.64380    0.15337    1.000
    C90      C        0.86756    0.08516    0.04452    1.000
    C91      C        0.94030    0.02370    0.05283    1.000
    C92      C        0.94490    0.95990    0.08115    1.000
    C93      C        0.87597    0.95837    0.10302    1.000
    C94      C        0.80190    0.02030    0.09598    1.000
    C95      C        0.79410    0.08510    0.06658    1.000
    C96      C        0.87780    0.89220    0.13455    1.000
    N1       N        0.33656    0.81896    0.38293    1.000
    N2       N        0.44031    0.83531    0.44826    1.000
    N3       N        0.30127    0.86087    0.50547    1.000
    N4       N        0.20024    0.83704    0.44140    1.000
    N5       N        0.81896    0.33656    0.88293    1.000
    N6       N        0.83531    0.44031    0.94826    1.000
    N7       N        0.86087    0.30127    0.00547    1.000
    N8       N        0.83704    0.20024    0.94140    1.000
    O1       O        0.02017    0.66377    0.23243    1.000
    O2       O        0.94520    0.80100    0.22627    1.000
    O3       O        0.82601    0.70121    0.26108    1.000
    O4       O        0.75372    0.82712    0.23240    1.000
    O5       O        0.70775    0.84215    0.66137    1.000
    O6       O        0.61970    0.96990    0.67102    1.000
    O7       O        0.90117    0.82097    0.66098    1.000
    O8       O        0.82278    0.93978    0.63240    1.000
    O9       O        0.66377    0.02017    0.73243    1.000
    O10      O        0.80100    0.94520    0.72627    1.000
    O11      O        0.70121    0.82601    0.76108    1.000
    O12      O        0.82712    0.75372    0.73240    1.000
    O13      O        0.84215    0.70775    0.16137    1.000
    O14      O        0.96990    0.61970    0.17102    1.000
    O15      O        0.82097    0.90117    0.16098    1.000
    O16      O        0.93978    0.82278    0.13240    1.000
    Zn5      Zn       0.14407    0.68641    0.05711    1.000
    Zn6      Zn       0.20294    0.14874    0.30527    1.000
    Zn7      Zn       0.68641    0.14407    0.55711    1.000
    Zn8      Zn       0.14874    0.20294    0.80527    1.000
    H53      H        0.21680    0.70720    0.20710    1.000
    H54      H        0.21580    0.56560    0.20360    1.000
    H55      H        0.17630    0.37450    0.08260    1.000
    H56      H        0.15370    0.39610    0.00870    1.000
    H57      H        0.11320    0.65380    0.90470    1.000
    H58      H        0.11430    0.79690    0.90740    1.000
    H59      H        0.16100    0.98100    0.02440    1.000
    H60      H        0.19120    0.95600    0.09840    1.000
    H61      H        0.08820    0.92200    0.17840    1.000
    H62      H        0.12040    0.00360    0.22690    1.000
    H63      H        0.36140    0.87380    0.21400    1.000
    H64      H        0.33230    0.79410    0.16410    1.000
    H65      H        0.32760    0.00140    0.29540    1.000
    H66      H        0.09380    0.49500    0.18770    1.000
    H67      H        0.11460    0.38580    0.23450    1.000
    H68      H        0.32690    0.25710    0.17780    1.000
    H69      H        0.30820    0.37020    0.13130    1.000
    H70      H        0.12190    0.29230    0.26380    1.000
    H71      H        0.00530    0.56090    0.93960    1.000
    H72      H        0.99020    0.48300    0.88310    1.000
    H73      H        0.23450    0.35250    0.88670    1.000
    H74      H        0.24860    0.43120    0.94030    1.000
    H75      H        0.01090    0.97570    0.96110    1.000
    H76      H        0.00400    0.08240    0.91470    1.000
    H77      H        0.24550    0.98030    0.88880    1.000
    H78      H        0.25740    0.87360    0.93820    1.000
    H79      H        0.70720    0.21680    0.70710    1.000
    H80      H        0.56560    0.21580    0.70360    1.000
    H81      H        0.37450    0.17630    0.58260    1.000
    H82      H        0.39610    0.15370    0.50870    1.000
    H83      H        0.65380    0.11320    0.40470    1.000
    H84      H        0.79690    0.11430    0.40740    1.000
    H85      H        0.98100    0.16100    0.52440    1.000
    H86      H        0.95600    0.19120    0.59840    1.000
    H87      H        0.92200    0.08820    0.67840    1.000
    H88      H        0.00360    0.12040    0.72690    1.000
    H89      H        0.87380    0.36140    0.71400    1.000
    H90      H        0.79410    0.33230    0.66410    1.000
    H91      H        0.00140    0.32760    0.79540    1.000
    H92      H        0.49500    0.09380    0.68770    1.000
    H93      H        0.38580    0.11460    0.73450    1.000
    H94      H        0.25710    0.32690    0.67780    1.000
    H95      H        0.37020    0.30820    0.63130    1.000
    H96      H        0.29230    0.12190    0.76380    1.000
    H97      H        0.56090    0.00530    0.43960    1.000
    H98      H        0.48300    0.99020    0.38310    1.000
    H99      H        0.35250    0.23450    0.38670    1.000
    H100     H        0.43120    0.24860    0.44030    1.000
    H101     H        0.97570    0.01090    0.46110    1.000
    H102     H        0.08240    0.00400    0.41470    1.000
    H103     H        0.98030    0.24550    0.38880    1.000
    H104     H        0.87360    0.25740    0.43820    1.000
    C97      C        0.17604    0.83864    0.09320    1.000
    C98      C        0.18999    0.80099    0.13216    1.000
    C99      C        0.19320    0.72080    0.14328    1.000
    C100     C        0.20800    0.68200    0.18365    1.000
    C101     C        0.20720    0.60440    0.18180    1.000
    C102     C        0.19080    0.59040    0.13983    1.000
    C103     C        0.18802    0.51582    0.12563    1.000
    C104     C        0.17724    0.50004    0.08356    1.000
    C105     C        0.17165    0.42345    0.06742    1.000
    C106     C        0.15860    0.43520    0.02679    1.000
    C107     C        0.15387    0.51947    0.01694    1.000
    C108     C        0.13857    0.55857    0.97793    1.000
    C109     C        0.13323    0.64023    0.96819    1.000
    C110     C        0.12040    0.67960    0.92823    1.000
    C111     C        0.12050    0.75830    0.92922    1.000
    C112     C        0.13237    0.76997    0.97182    1.000
    C113     C        0.14034    0.84414    0.98592    1.000
    C114     C        0.15456    0.85836    0.02638    1.000
    C115     C        0.16446    0.93286    0.04004    1.000
    C116     C        0.17994    0.91894    0.08114    1.000
    C117     C        0.20507    0.85407    0.16544    1.000
    C118     C        0.14390    0.91250    0.18468    1.000
    C119     C        0.16320    0.96020    0.21474    1.000
    C120     C        0.24335    0.94375    0.22616    1.000
    C121     C        0.30610    0.88370    0.20690    1.000
    C122     C        0.28910    0.83650    0.17670    1.000
    C123     C        0.25820    0.99900    0.25864    1.000
    C124     C        0.19870    0.44630    0.15487    1.000
    C125     C        0.14190    0.44810    0.18540    1.000
    C126     C        0.15400    0.38160    0.21326    1.000
    C127     C        0.22084    0.31124    0.21047    1.000
    C128     C        0.28000    0.30520    0.18008    1.000
    C129     C        0.26820    0.37360    0.15218    1.000
    C130     C        0.23630    0.23590    0.24005    1.000
    C131     C        0.13048    0.50308    0.94378    1.000
    C132     C        0.05150    0.51950    0.92839    1.000
    C133     C        0.04225    0.47145    0.89486    1.000
    C134     C        0.11180    0.40720    0.87993    1.000
    C135     C        0.18740    0.39440    0.89688    1.000
    C136     C        0.19630    0.44210    0.92906    1.000
    C137     C        0.09920    0.35620    0.84663    1.000
    C138     C        0.13244    0.91484    0.95548    1.000
    C139     C        0.05970    0.97630    0.94717    1.000
    C140     C        0.05510    0.04010    0.91885    1.000
    C141     C        0.12403    0.04163    0.89698    1.000
    C142     C        0.19810    0.97970    0.90402    1.000
    C143     C        0.20590    0.91490    0.93342    1.000
    C144     C        0.12220    0.10780    0.86545    1.000
    C145     C        0.83864    0.17604    0.59320    1.000
    C146     C        0.80099    0.18999    0.63216    1.000
    C147     C        0.72080    0.19320    0.64328    1.000
    C148     C        0.68200    0.20800    0.68365    1.000
    C149     C        0.60440    0.20720    0.68180    1.000
    C150     C        0.59040    0.19080    0.63983    1.000
    C151     C        0.51582    0.18802    0.62563    1.000
    C152     C        0.50004    0.17724    0.58356    1.000
    C153     C        0.42345    0.17165    0.56742    1.000
    C154     C        0.43520    0.15860    0.52679    1.000
    C155     C        0.51947    0.15387    0.51694    1.000
    C156     C        0.55857    0.13857    0.47793    1.000
    C157     C        0.64023    0.13323    0.46819    1.000
    C158     C        0.67960    0.12040    0.42823    1.000
    C159     C        0.75830    0.12050    0.42922    1.000
    C160     C        0.76997    0.13237    0.47182    1.000
    C161     C        0.84414    0.14034    0.48592    1.000
    C162     C        0.85836    0.15456    0.52638    1.000
    C163     C        0.93286    0.16446    0.54004    1.000
    C164     C        0.91894    0.17994    0.58114    1.000
    C165     C        0.85407    0.20507    0.66544    1.000
    C166     C        0.91250    0.14390    0.68468    1.000
    C167     C        0.96020    0.16320    0.71474    1.000
    C168     C        0.94375    0.24335    0.72616    1.000
    C169     C        0.88370    0.30610    0.70690    1.000
    C170     C        0.83650    0.28910    0.67670    1.000
    C171     C        0.99900    0.25820    0.75864    1.000
    C172     C        0.44630    0.19870    0.65487    1.000
    C173     C        0.44810    0.14190    0.68540    1.000
    C174     C        0.38160    0.15400    0.71326    1.000
    C175     C        0.31124    0.22084    0.71047    1.000
    C176     C        0.30520    0.28000    0.68008    1.000
    C177     C        0.37360    0.26820    0.65218    1.000
    C178     C        0.23590    0.23630    0.74005    1.000
    C179     C        0.50308    0.13048    0.44378    1.000
    C180     C        0.51950    0.05150    0.42839    1.000
    C181     C        0.47145    0.04225    0.39486    1.000
    C182     C        0.40720    0.11180    0.37993    1.000
    C183     C        0.39440    0.18740    0.39688    1.000
    C184     C        0.44210    0.19630    0.42906    1.000
    C185     C        0.35620    0.09920    0.34663    1.000
    C186     C        0.91484    0.13244    0.45548    1.000
    C187     C        0.97630    0.05970    0.44717    1.000
    C188     C        0.04010    0.05510    0.41885    1.000
    C189     C        0.04163    0.12403    0.39698    1.000
    C190     C        0.97970    0.19810    0.40402    1.000
    C191     C        0.91490    0.20590    0.43342    1.000
    C192     C        0.10780    0.12220    0.36545    1.000
    N9       N        0.18104    0.66344    0.11707    1.000
    N10      N        0.16469    0.55969    0.05174    1.000
    N11      N        0.13913    0.69873    0.99453    1.000
    N12      N        0.16296    0.79976    0.05860    1.000
    N13      N        0.66344    0.18104    0.61707    1.000
    N14      N        0.55969    0.16469    0.55174    1.000
    N15      N        0.69873    0.13913    0.49453    1.000
    N16      N        0.79976    0.16296    0.55860    1.000
    O17      O        0.33623    0.97983    0.26757    1.000
    O18      O        0.19900    0.05480    0.27373    1.000
    O19      O        0.29879    0.17399    0.23892    1.000
    O20      O        0.17288    0.24628    0.26760    1.000
    O21      O        0.15785    0.29225    0.83863    1.000
    O22      O        0.03010    0.38030    0.82898    1.000
    O23      O        0.17903    0.09883    0.83902    1.000
    O24      O        0.06022    0.17722    0.86760    1.000
    O25      O        0.97983    0.33623    0.76757    1.000
    O26      O        0.05480    0.19900    0.77373    1.000
    O27      O        0.17399    0.29879    0.73892    1.000
    O28      O        0.24628    0.17288    0.76760    1.000
    O29      O        0.29225    0.15785    0.33863    1.000
    O30      O        0.38030    0.03010    0.32898    1.000
    O31      O        0.09883    0.17903    0.33902    1.000
    O32      O        0.17722    0.06022    0.36760    1.000
