# CIF file generated by openbabel 3.1.0, see https://openbabel.org
data_I
_chemical_name_common 'image0'
_cell_length_a 9.636
_cell_length_b 9.885
_cell_length_c 24.555
_cell_angle_alpha 90
_cell_angle_beta 111.479
_cell_angle_gamma 90
_space_group_name_H-M_alt 'P 1'
_space_group_name_Hall 'P 1'
loop_
    _symmetry_equiv_pos_as_xyz
    x,y,z
loop_
    _atom_site_label
    _atom_site_type_symbol
    _atom_site_fract_x
    _atom_site_fract_y
    _atom_site_fract_z
    _atom_site_occupancy
    Cu1      Cu       0.20261    0.45791    0.75854    1.000
    C1       C        0.40120    0.58630    0.87191    1.000
    H1       H        0.44290    0.50330    0.88710    1.000
    C2       C        0.26700    0.73140    0.81459    1.000
    H2       H        0.19740    0.77480    0.78260    1.000
    C3       C        0.36570    0.93720    0.87550    1.000
    H3       H        0.26710    0.97750    0.86030    1.000
    H4       H        0.42500    0.97870    0.85560    1.000
    C4       C        0.43550    0.96620    0.93937    1.000
    C5       C        0.57000    0.03310    0.96295    1.000
    C6       C        0.63200    0.06590    0.02112    1.000
    C7       C        0.26340    0.31060    0.66436    1.000
    H5       H        0.31860    0.38380    0.65970    1.000
    C8       C        0.13180    0.18760    0.69656    1.000
    H6       H        0.07760    0.15320    0.71800    1.000
    C9       C        0.10800    0.99030    0.62821    1.000
    H7       H        0.02900    0.95700    0.64020    1.000
    H8       H        0.19150    0.92810    0.64280    1.000
    C10      C        0.05310    0.99560    0.56186    1.000
    C11      C        0.91420    0.04470    0.52933    1.000
    C12      C        0.13870    0.95090    0.53102    1.000
    C13      C        0.03730    0.60170    0.67509    1.000
    C14      C        0.95570    0.66130    0.61586    1.000
    C15      C        0.82090    0.72990    0.60318    1.000
    C16      C        0.73710    0.76300    0.54550    1.000
    H9       H        0.64580    0.80640    0.53670    1.000
    C17      C        0.78790    0.73200    0.50079    1.000
    H10      H        0.73070    0.75390    0.46220    1.000
    C18      C        0.92390    0.66870    0.51398    1.000
    H11      H        0.95970    0.65030    0.48440    1.000
    C19      C        0.00670    0.63260    0.57070    1.000
    H12      H        0.09760    0.58870    0.57910    1.000
    C20      C        0.76540    0.77990    0.64942    1.000
    F1       F        0.64500    0.06570    0.92781    1.000
    F2       F        0.76610    0.12850    0.04140    1.000
    F3       F        0.82430    0.08810    0.55698    1.000
    F4       F        0.27630    0.90260    0.55987    1.000
    N1       N        0.29410    0.60020    0.81825    1.000
    N2       N        0.44090    0.69980    0.90042    1.000
    N3       N        0.35310    0.79210    0.86296    1.000
    N4       N        0.19750    0.30690    0.70484    1.000
    N5       N        0.24100    0.20080    0.63274    1.000
    N6       N        0.15460    0.12440    0.65319    1.000
    O1       O        0.96540    0.55900    0.70448    1.000
    O2       O        0.17910    0.58720    0.69234    1.000
    O3       O        0.86140    0.85030    0.68946    1.000
    O4       O        0.63580    0.76110    0.64429    1.000
    Cu2      Cu       0.79739    0.95791    0.74146    1.000
    C21      C        0.59880    0.08630    0.62809    1.000
    H13      H        0.55710    0.00330    0.61290    1.000
    C22      C        0.73300    0.23140    0.68541    1.000
    H14      H        0.80260    0.27480    0.71740    1.000
    C23      C        0.63430    0.43720    0.62450    1.000
    H15      H        0.73290    0.47750    0.63970    1.000
    H16      H        0.57500    0.47870    0.64440    1.000
    C24      C        0.56450    0.46620    0.56063    1.000
    C25      C        0.43000    0.53310    0.53705    1.000
    C26      C        0.36800    0.56590    0.47888    1.000
    C27      C        0.73660    0.81060    0.83564    1.000
    H17      H        0.68140    0.88380    0.84030    1.000
    C28      C        0.86820    0.68760    0.80344    1.000
    H18      H        0.92240    0.65320    0.78200    1.000
    C29      C        0.89200    0.49030    0.87179    1.000
    H19      H        0.97100    0.45700    0.85980    1.000
    H20      H        0.80850    0.42810    0.85720    1.000
    C30      C        0.94690    0.49560    0.93814    1.000
    C31      C        0.08580    0.54470    0.97067    1.000
    C32      C        0.86130    0.45090    0.96898    1.000
    C33      C        0.96270    0.10170    0.82491    1.000
    C34      C        0.04430    0.16130    0.88414    1.000
    C35      C        0.17910    0.22990    0.89682    1.000
    C36      C        0.26290    0.26300    0.95450    1.000
    H21      H        0.35420    0.30640    0.96330    1.000
    C37      C        0.21210    0.23200    0.99921    1.000
    H22      H        0.26930    0.25390    0.03780    1.000
    C38      C        0.07610    0.16870    0.98602    1.000
    H23      H        0.04030    0.15030    0.01560    1.000
    C39      C        0.99330    0.13260    0.92930    1.000
    H24      H        0.90240    0.08870    0.92090    1.000
    C40      C        0.23460    0.27990    0.85058    1.000
    F5       F        0.35500    0.56570    0.57219    1.000
    F6       F        0.23390    0.62850    0.45860    1.000
    F7       F        0.17570    0.58810    0.94302    1.000
    F8       F        0.72370    0.40260    0.94013    1.000
    N7       N        0.70590    0.10020    0.68175    1.000
    N8       N        0.55910    0.19980    0.59958    1.000
    N9       N        0.64690    0.29210    0.63704    1.000
    N10      N        0.80250    0.80690    0.79516    1.000
    N11      N        0.75900    0.70080    0.86726    1.000
    N12      N        0.84540    0.62440    0.84681    1.000
    O5       O        0.03460    0.05900    0.79552    1.000
    O6       O        0.82090    0.08720    0.80766    1.000
    O7       O        0.13860    0.35030    0.81054    1.000
    O8       O        0.36420    0.26110    0.85571    1.000
    Cu3      Cu       0.79739    0.54209    0.24146    1.000
    C41      C        0.59880    0.41370    0.12809    1.000
    H25      H        0.55710    0.49670    0.11290    1.000
    C42      C        0.73300    0.26860    0.18541    1.000
    H26      H        0.80260    0.22520    0.21740    1.000
    C43      C        0.63430    0.06280    0.12450    1.000
    H27      H        0.73290    0.02250    0.13970    1.000
    H28      H        0.57500    0.02130    0.14440    1.000
    C44      C        0.56450    0.03380    0.06063    1.000
    C45      C        0.43000    0.96690    0.03705    1.000
    C46      C        0.36800    0.93410    0.97888    1.000
    C47      C        0.73660    0.68940    0.33564    1.000
    H29      H        0.68140    0.61620    0.34030    1.000
    C48      C        0.86820    0.81240    0.30344    1.000
    H30      H        0.92240    0.84680    0.28200    1.000
    C49      C        0.89200    0.00970    0.37179    1.000
    H31      H        0.97100    0.04300    0.35980    1.000
    H32      H        0.80850    0.07190    0.35720    1.000
    C50      C        0.94690    0.00440    0.43814    1.000
    C51      C        0.08580    0.95530    0.47067    1.000
    C52      C        0.86130    0.04910    0.46898    1.000
    C53      C        0.96270    0.39830    0.32491    1.000
    C54      C        0.04430    0.33870    0.38414    1.000
    C55      C        0.17910    0.27010    0.39682    1.000
    C56      C        0.26290    0.23700    0.45450    1.000
    H33      H        0.35420    0.19360    0.46330    1.000
    C57      C        0.21210    0.26800    0.49921    1.000
    H34      H        0.26930    0.24610    0.53780    1.000
    C58      C        0.07610    0.33130    0.48602    1.000
    H35      H        0.04030    0.34970    0.51560    1.000
    C59      C        0.99330    0.36740    0.42930    1.000
    H36      H        0.90240    0.41130    0.42090    1.000
    C60      C        0.23460    0.22010    0.35058    1.000
    F9       F        0.35500    0.93430    0.07219    1.000
    F10      F        0.23390    0.87150    0.95860    1.000
    F11      F        0.17570    0.91190    0.44302    1.000
    F12      F        0.72370    0.09740    0.44013    1.000
    N13      N        0.70590    0.39980    0.18175    1.000
    N14      N        0.55910    0.30020    0.09958    1.000
    N15      N        0.64690    0.20790    0.13704    1.000
    N16      N        0.80250    0.69310    0.29516    1.000
    N17      N        0.75900    0.79920    0.36726    1.000
    N18      N        0.84540    0.87560    0.34681    1.000
    O9       O        0.03460    0.44100    0.29552    1.000
    O10      O        0.82090    0.41280    0.30766    1.000
    O11      O        0.13860    0.14970    0.31054    1.000
    O12      O        0.36420    0.23890    0.35571    1.000
    Cu4      Cu       0.20261    0.04209    0.25854    1.000
    C61      C        0.40120    0.91370    0.37191    1.000
    H37      H        0.44290    0.99670    0.38710    1.000
    C62      C        0.26700    0.76860    0.31459    1.000
    H38      H        0.19740    0.72520    0.28260    1.000
    C63      C        0.36570    0.56280    0.37550    1.000
    H39      H        0.26710    0.52250    0.36030    1.000
    H40      H        0.42500    0.52130    0.35560    1.000
    C64      C        0.43550    0.53380    0.43937    1.000
    C65      C        0.57000    0.46690    0.46295    1.000
    C66      C        0.63200    0.43410    0.52112    1.000
    C67      C        0.26340    0.18940    0.16436    1.000
    H41      H        0.31860    0.11620    0.15970    1.000
    C68      C        0.13180    0.31240    0.19656    1.000
    H42      H        0.07760    0.34680    0.21800    1.000
    C69      C        0.10800    0.50970    0.12821    1.000
    H43      H        0.02900    0.54300    0.14020    1.000
    H44      H        0.19150    0.57190    0.14280    1.000
    C70      C        0.05310    0.50440    0.06186    1.000
    C71      C        0.91420    0.45530    0.02933    1.000
    C72      C        0.13870    0.54910    0.03102    1.000
    C73      C        0.03730    0.89830    0.17509    1.000
    C74      C        0.95570    0.83870    0.11586    1.000
    C75      C        0.82090    0.77010    0.10318    1.000
    C76      C        0.73710    0.73700    0.04550    1.000
    H45      H        0.64580    0.69360    0.03670    1.000
    C77      C        0.78790    0.76800    0.00079    1.000
    H46      H        0.73070    0.74610    0.96220    1.000
    C78      C        0.92390    0.83130    0.01398    1.000
    H47      H        0.95970    0.84970    0.98440    1.000
    C79      C        0.00670    0.86740    0.07070    1.000
    H48      H        0.09760    0.91130    0.07910    1.000
    C80      C        0.76540    0.72010    0.14942    1.000
    F13      F        0.64500    0.43430    0.42781    1.000
    F14      F        0.76610    0.37150    0.54140    1.000
    F15      F        0.82430    0.41190    0.05698    1.000
    F16      F        0.27630    0.59740    0.05987    1.000
    N19      N        0.29410    0.89980    0.31825    1.000
    N20      N        0.44090    0.80020    0.40042    1.000
    N21      N        0.35310    0.70790    0.36296    1.000
    N22      N        0.19750    0.19310    0.20484    1.000
    N23      N        0.24100    0.29920    0.13274    1.000
    N24      N        0.15460    0.37560    0.15319    1.000
    O13      O        0.96540    0.94100    0.20448    1.000
    O14      O        0.17910    0.91280    0.19234    1.000
    O15      O        0.86140    0.64970    0.18946    1.000
    O16      O        0.63580    0.73890    0.14429    1.000
