# CIF file generated by openbabel 3.1.0, see https://openbabel.org
data_I
_chemical_name_common 'image0'
_cell_length_a 24.973
_cell_length_b 19.3506
_cell_length_c 21.3833
_cell_angle_alpha 90
_cell_angle_beta 96.045
_cell_angle_gamma 90
_space_group_name_H-M_alt 'P 1'
_space_group_name_Hall 'P 1'
loop_
    _symmetry_equiv_pos_as_xyz
    x,y,z
loop_
    _atom_site_label
    _atom_site_type_symbol
    _atom_site_fract_x
    _atom_site_fract_y
    _atom_site_fract_z
    _atom_site_occupancy
    Ag1      Ag       0.69970    0.21057    0.44271    1.000
    C1       C        0.96080    0.27660    0.96130    1.000
    N1       N        0.98090    0.40280    0.96490    1.000
    Ag2      Ag       0.90329    0.21633    0.62967    1.000
    N2       N        0.98240    0.45180    0.91960    1.000
    C2       C        0.92130    0.23240    0.93030    1.000
    H1       H        0.90280    0.24470    0.89190    1.000
    N3       N        0.97430    0.42360    0.86370    1.000
    C3       C        0.91120    0.16960    0.95920    1.000
    H2       H        0.88510    0.13990    0.94020    1.000
    N4       N        0.96620    0.35420    0.87120    1.000
    C4       C        0.93900    0.15180    0.01480    1.000
    H3       H        0.93120    0.10990    0.03310    1.000
    Ag3      Ag       0.00956    0.56798    0.93377    1.000
    N5       N        0.84110    0.36080    0.63230    1.000
    C5       C        0.97810    0.19310    0.04520    1.000
    Ag4      Ag       0.94520    0.48252    0.77003    1.000
    C6       C        0.98770    0.25650    0.01820    1.000
    H4       H        0.01290    0.28620    0.03890    1.000
    N6       N        0.87300    0.31650    0.66760    1.000
    Ag5      Ag       0.96395    0.28734    0.78486    1.000
    N7       N        0.90510    0.34890    0.70720    1.000
    C7       C        0.01380    0.16990    0.10430    1.000
    H5       H        0.03840    0.20630    0.11800    1.000
    H6       H        0.99160    0.15930    0.13700    1.000
    H7       H        0.03370    0.12950    0.09470    1.000
    N8       N        0.89700    0.41940    0.69930    1.000
    C8       C        0.97060    0.34360    0.93240    1.000
    Ag6      Ag       0.58072    0.28974    0.37533    1.000
    C9       C        0.83390    0.48910    0.62620    1.000
    Ag7      Ag       0.76799    0.32634    0.57406    1.000
    C10      C        0.81020    0.48940    0.56430    1.000
    H8       H        0.81010    0.44940    0.54020    1.000
    N9       N        0.62320    0.33480    0.45760    1.000
    C11      C        0.78650    0.54960    0.53850    1.000
    H9       H        0.77170    0.55050    0.49670    1.000
    N10      N        0.66470    0.30420    0.48990    1.000
    C12      C        0.78540    0.60930    0.57650    1.000
    H10      H        0.76940    0.64950    0.55970    1.000
    N11      N        0.68290    0.34290    0.53750    1.000
    C13      C        0.80780    0.60830    0.63770    1.000
    C14      C        0.83380    0.54780    0.66140    1.000
    H11      H        0.85130    0.54780    0.70200    1.000
    C15      C        0.80770    0.67050    0.67870    1.000
    H12      H        0.82510    0.65970    0.71970    1.000
    H13      H        0.82670    0.70740    0.66060    1.000
    H14      H        0.77130    0.68460    0.68210    1.000
    C16      C        0.85780    0.42450    0.65240    1.000
    C17      C        0.65650    0.45770    0.57970    1.000
    N12      N        0.78880    0.19470    0.46580    1.000
    C18      C        0.67820    0.44550    0.64120    1.000
    H15      H        0.68950    0.40140    0.65380    1.000
    N13      N        0.80920    0.22470    0.52130    1.000
    N14      N        0.85290    0.19440    0.54200    1.000
    C19      C        0.68290    0.50060    0.68420    1.000
    H16      H        0.69610    0.49280    0.72590    1.000
    N15      N        0.86250    0.14300    0.50280    1.000
    C20      C        0.66840    0.56390    0.66510    1.000
    H17      H        0.67380    0.60020    0.69360    1.000
    N16      N        0.99760    0.11490    0.66510    1.000
    C21      C        0.64550    0.57800    0.60440    1.000
    N17      N        0.01920    0.08580    0.71970    1.000
    C22      C        0.63980    0.52410    0.56260    1.000
    H18      H        0.62440    0.53230    0.52170    1.000
    N18      N        0.99040    0.18940    0.73870    1.000
    C23      C        0.63150    0.65030    0.58530    1.000
    H19      H        0.63820    0.68030    0.62100    1.000
    H20      H        0.65310    0.66450    0.55310    1.000
    H21      H        0.59410    0.65260    0.56950    1.000
    N19      N        0.98030    0.17650    0.67720    1.000
    C24      C        0.65180    0.40030    0.53480    1.000
    N20      N        0.64400    0.15390    0.37350    1.000
    N21      N        0.61290    0.19460    0.33340    1.000
    N22      N        0.60360    0.09070    0.29800    1.000
    N23      N        0.58780    0.15610    0.28940    1.000
    C25      C        0.82800    0.08240    0.41050    1.000
    C26      C        0.80600    0.09390    0.34890    1.000
    H22      H        0.79150    0.13690    0.33740    1.000
    C27      C        0.80560    0.04120    0.30470    1.000
    H23      H        0.79080    0.04890    0.26350    1.000
    C28      C        0.82720    0.97700    0.32200    1.000
    H24      H        0.82690    0.94170    0.29250    1.000
    C29      C        0.84930    0.96550    0.38360    1.000
    C30      C        0.84970    0.01820    0.42780    1.000
    H25      H        0.86440    0.01040    0.46900    1.000
    C31      C        0.87220    0.89690    0.40540    1.000
    H26      H        0.86950    0.86510    0.37070    1.000
    H27      H        0.90930    0.90250    0.42150    1.000
    H28      H        0.85230    0.87910    0.43800    1.000
    C32      C        0.82150    0.14580    0.45560    1.000
    C33      C        0.66770    0.03120    0.37830    1.000
    C34      C        0.69200    0.03700    0.43930    1.000
    H29      H        0.68660    0.07650    0.46250    1.000
    C35      C        0.72460    0.98370    0.46640    1.000
    H30      H        0.74160    0.98790    0.50710    1.000
    C36      C        0.73110    0.92440    0.43110    1.000
    H31      H        0.75300    0.88910    0.44870    1.000
    C37      C        0.70600    0.91640    0.37120    1.000
    C38      C        0.67530    0.97110    0.34500    1.000
    H32      H        0.65940    0.96730    0.30390    1.000
    C39      C        0.71670    0.85350    0.33180    1.000
    H33      H        0.69580    0.85680    0.29160    1.000
    H34      H        0.75430    0.85160    0.32600    1.000
    H35      H        0.70680    0.81240    0.35290    1.000
    C40      C        0.63810    0.09100    0.34980    1.000
    C41      C        0.06000    0.18040    0.86340    1.000
    H36      H        0.06460    0.22190    0.84260    1.000
    C42      C        0.02560    0.06510    0.86290    1.000
    H37      H        0.00800    0.02820    0.84170    1.000
    C43      C        0.04340    0.05860    0.92560    1.000
    H38      H        0.03650    0.01840    0.94730    1.000
    C44      C        0.07090    0.11110    0.95550    1.000
    H39      H        0.08480    0.10500    0.99720    1.000
    C45      C        0.07950    0.17390    0.92630    1.000
    C46      C        0.03340    0.12590    0.83070    1.000
    C47      C        0.11140    0.23220    0.95940    1.000
    H40      H        0.12190    0.21940    0.00240    1.000
    H41      H        0.14300    0.24100    0.93870    1.000
    H42      H        0.08960    0.27310    0.95830    1.000
    C48      C        0.01400    0.13460    0.76370    1.000
    Ag8      Ag       0.51243    0.20565    0.22265    1.000
    Ag9      Ag       0.55995    0.01670    0.23302    1.000
    Ag10     Ag       0.52318    0.06358    0.93917    1.000
    N24      N        0.50210    0.10040    0.03940    1.000
    N25      N        0.50590    0.07330    0.13860    1.000
    N26      N        0.51730    0.14140    0.13590    1.000
    C49      C        0.52850    0.22640    0.05080    1.000
    C50      C        0.56600    0.26620    0.08690    1.000
    H43      H        0.58140    0.24980    0.12560    1.000
    C51      C        0.58070    0.33040    0.06580    1.000
    H44      H        0.60570    0.35750    0.08990    1.000
    N27      N        0.50050    0.31770    0.32840    1.000
    C52      C        0.55760    0.35310    0.00850    1.000
    H45      H        0.56800    0.39590    0.99420    1.000
    N28      N        0.48840    0.38220    0.33810    1.000
    C53      C        0.51910    0.31480    0.97030    1.000
    N29      N        0.46760    0.41040    0.28300    1.000
    C54      C        0.50550    0.24830    0.99310    1.000
    H46      H        0.48120    0.22010    0.96900    1.000
    C55      C        0.49280    0.34290    0.90950    1.000
    H47      H        0.46780    0.30950    0.89030    1.000
    H48      H        0.47390    0.38470    0.91730    1.000
    H49      H        0.51980    0.35250    0.88190    1.000
    N30      N        0.48740    0.30230    0.26710    1.000
    C56      C        0.51550    0.15560    0.07450    1.000
    C57      C        0.45010    0.36870    0.17420    1.000
    C58      C        0.46490    0.42660    0.14060    1.000
    H50      H        0.48770    0.46020    0.15970    1.000
    C59      C        0.44420    0.43230    0.07690    1.000
    H51      H        0.45260    0.47150    0.05470    1.000
    C60      C        0.41400    0.38520    0.04790    1.000
    H52      H        0.40240    0.39070    0.00540    1.000
    C61      C        0.39850    0.32680    0.07910    1.000
    C62      C        0.41820    0.31840    0.14240    1.000
    H53      H        0.40970    0.27850    0.16350    1.000
    C63      C        0.46920    0.35890    0.24010    1.000
    C64      C        0.36280    0.27410    0.04430    1.000
    H54      H        0.35590    0.23720    0.07240    1.000
    H55      H        0.32940    0.29530    0.02840    1.000
    H56      H        0.38030    0.25600    0.01000    1.000
    N31      N        0.61420    0.39570    0.48410    1.000
    N32      N        0.49720    0.04920    0.08150    1.000
    Ag11     Ag       0.52600    0.58680    0.56410    1.000
    Ag12     Ag       0.66000    0.19070    0.48130    1.000
    Ag13     Ag       0.42900    0.52670    0.55920    1.000
    Ag14     Ag       0.30030    0.71057    0.05729    1.000
    C65      C        0.03920    0.77660    0.53870    1.000
    N33      N        0.01910    0.90280    0.53510    1.000
    Ag15     Ag       0.09671    0.71633    0.87033    1.000
    N34      N        0.01760    0.95180    0.58040    1.000
    C66      C        0.07870    0.73240    0.56970    1.000
    H57      H        0.09720    0.74470    0.60810    1.000
    N35      N        0.02570    0.92360    0.63630    1.000
    C67      C        0.08880    0.66960    0.54080    1.000
    H58      H        0.11490    0.63990    0.55980    1.000
    N36      N        0.03380    0.85420    0.62880    1.000
    C68      C        0.06100    0.65180    0.48520    1.000
    H59      H        0.06880    0.60990    0.46690    1.000
    Ag16     Ag       0.99044    0.06798    0.56623    1.000
    N37      N        0.15890    0.86080    0.86770    1.000
    C69      C        0.02190    0.69310    0.45480    1.000
    Ag17     Ag       0.05480    0.98252    0.72997    1.000
    C70      C        0.01230    0.75650    0.48180    1.000
    H60      H        0.98710    0.78620    0.46110    1.000
    N38      N        0.12700    0.81650    0.83240    1.000
    Ag18     Ag       0.03605    0.78734    0.71514    1.000
    N39      N        0.09490    0.84890    0.79280    1.000
    C71      C        0.98620    0.66990    0.39570    1.000
    H61      H        0.96160    0.70630    0.38200    1.000
    H62      H        0.00840    0.65930    0.36300    1.000
    H63      H        0.96630    0.62950    0.40530    1.000
    N40      N        0.10300    0.91940    0.80070    1.000
    C72      C        0.02940    0.84360    0.56760    1.000
    Ag19     Ag       0.41928    0.78974    0.12467    1.000
    C73      C        0.16610    0.98910    0.87380    1.000
    Ag20     Ag       0.23201    0.82634    0.92594    1.000
    C74      C        0.18980    0.98940    0.93570    1.000
    H64      H        0.18990    0.94940    0.95980    1.000
    N41      N        0.37680    0.83480    0.04240    1.000
    C75      C        0.21350    0.04960    0.96150    1.000
    H65      H        0.22830    0.05050    0.00330    1.000
    N42      N        0.33530    0.80420    0.01010    1.000
    C76      C        0.21460    0.10930    0.92350    1.000
    H66      H        0.23060    0.14950    0.94030    1.000
    N43      N        0.31710    0.84290    0.96250    1.000
    C77      C        0.19220    0.10830    0.86230    1.000
    C78      C        0.16620    0.04780    0.83860    1.000
    H67      H        0.14870    0.04780    0.79800    1.000
    C79      C        0.19230    0.17050    0.82130    1.000
    H68      H        0.17490    0.15970    0.78030    1.000
    H69      H        0.17330    0.20740    0.83940    1.000
    H70      H        0.22870    0.18460    0.81790    1.000
    C80      C        0.14220    0.92450    0.84760    1.000
    C81      C        0.34350    0.95770    0.92030    1.000
    N44      N        0.21120    0.69470    0.03420    1.000
    C82      C        0.32180    0.94550    0.85880    1.000
    H71      H        0.31050    0.90140    0.84620    1.000
    N45      N        0.19080    0.72470    0.97870    1.000
    N46      N        0.14710    0.69440    0.95800    1.000
    C83      C        0.31710    0.00060    0.81580    1.000
    H72      H        0.30390    0.99280    0.77410    1.000
    N47      N        0.13750    0.64300    0.99720    1.000
    C84      C        0.33160    0.06390    0.83490    1.000
    H73      H        0.32620    0.10020    0.80640    1.000
    N48      N        0.00240    0.61490    0.83490    1.000
    C85      C        0.35450    0.07800    0.89560    1.000
    N49      N        0.98080    0.58580    0.78030    1.000
    C86      C        0.36020    0.02410    0.93740    1.000
    H74      H        0.37560    0.03230    0.97830    1.000
    N50      N        0.00960    0.68940    0.76130    1.000
    C87      C        0.36850    0.15030    0.91470    1.000
    H75      H        0.36180    0.18030    0.87900    1.000
    H76      H        0.34690    0.16450    0.94690    1.000
    H77      H        0.40590    0.15260    0.93050    1.000
    N51      N        0.01970    0.67650    0.82280    1.000
    C88      C        0.34820    0.90030    0.96520    1.000
    N52      N        0.35600    0.65390    0.12650    1.000
    N53      N        0.38710    0.69460    0.16660    1.000
    N54      N        0.39640    0.59070    0.20200    1.000
    N55      N        0.41220    0.65610    0.21060    1.000
    C89      C        0.17200    0.58240    0.08950    1.000
    C90      C        0.19400    0.59390    0.15110    1.000
    H78      H        0.20850    0.63690    0.16260    1.000
    C91      C        0.19440    0.54120    0.19530    1.000
    H79      H        0.20920    0.54890    0.23650    1.000
    C92      C        0.17280    0.47700    0.17800    1.000
    H80      H        0.17310    0.44170    0.20750    1.000
    C93      C        0.15070    0.46550    0.11640    1.000
    C94      C        0.15030    0.51820    0.07220    1.000
    H81      H        0.13560    0.51040    0.03100    1.000
    C95      C        0.12780    0.39690    0.09460    1.000
    H82      H        0.13050    0.36510    0.12930    1.000
    H83      H        0.09070    0.40250    0.07850    1.000
    H84      H        0.14770    0.37910    0.06200    1.000
    C96      C        0.17850    0.64580    0.04440    1.000
    C97      C        0.33230    0.53120    0.12170    1.000
    C98      C        0.30800    0.53700    0.06070    1.000
    H85      H        0.31340    0.57650    0.03750    1.000
    C99      C        0.27540    0.48370    0.03360    1.000
    H86      H        0.25840    0.48790    0.99290    1.000
    C100     C        0.26890    0.42440    0.06890    1.000
    H87      H        0.24700    0.38910    0.05130    1.000
    C101     C        0.29400    0.41640    0.12880    1.000
    C102     C        0.32470    0.47110    0.15500    1.000
    H88      H        0.34060    0.46730    0.19610    1.000
    C103     C        0.28330    0.35350    0.16820    1.000
    H89      H        0.30420    0.35680    0.20840    1.000
    H90      H        0.24570    0.35160    0.17400    1.000
    H91      H        0.29320    0.31240    0.14710    1.000
    C104     C        0.36190    0.59100    0.15020    1.000
    C105     C        0.94000    0.68040    0.63660    1.000
    H92      H        0.93540    0.72190    0.65740    1.000
    C106     C        0.97440    0.56510    0.63710    1.000
    H93      H        0.99200    0.52820    0.65830    1.000
    C107     C        0.95660    0.55860    0.57440    1.000
    H94      H        0.96350    0.51840    0.55270    1.000
    C108     C        0.92910    0.61110    0.54450    1.000
    H95      H        0.91520    0.60500    0.50280    1.000
    C109     C        0.92050    0.67390    0.57370    1.000
    C110     C        0.96660    0.62590    0.66930    1.000
    C111     C        0.88860    0.73220    0.54060    1.000
    H96      H        0.87810    0.71940    0.49760    1.000
    H97      H        0.85700    0.74100    0.56130    1.000
    H98      H        0.91040    0.77310    0.54170    1.000
    C112     C        0.98600    0.63460    0.73630    1.000
    Ag21     Ag       0.48757    0.70565    0.27735    1.000
    Ag22     Ag       0.44005    0.51670    0.26698    1.000
    Ag23     Ag       0.47682    0.56358    0.56083    1.000
    N56      N        0.49790    0.60040    0.46060    1.000
    N57      N        0.49410    0.57330    0.36140    1.000
    N58      N        0.48270    0.64140    0.36410    1.000
    C113     C        0.47150    0.72640    0.44920    1.000
    C114     C        0.43400    0.76620    0.41310    1.000
    H99      H        0.41860    0.74980    0.37440    1.000
    C115     C        0.41930    0.83040    0.43420    1.000
    H100     H        0.39430    0.85750    0.41010    1.000
    N59      N        0.49950    0.81770    0.17160    1.000
    C116     C        0.44240    0.85310    0.49150    1.000
    H101     H        0.43200    0.89590    0.50580    1.000
    N60      N        0.51160    0.88220    0.16190    1.000
    C117     C        0.48090    0.81480    0.52970    1.000
    N61      N        0.53240    0.91040    0.21700    1.000
    C118     C        0.49450    0.74830    0.50690    1.000
    H102     H        0.51880    0.72010    0.53100    1.000
    C119     C        0.50720    0.84290    0.59050    1.000
    H103     H        0.53220    0.80950    0.60970    1.000
    H104     H        0.52610    0.88470    0.58270    1.000
    H105     H        0.48020    0.85250    0.61810    1.000
    N62      N        0.51260    0.80230    0.23290    1.000
    C120     C        0.48450    0.65560    0.42550    1.000
    C121     C        0.54990    0.86870    0.32580    1.000
    C122     C        0.53510    0.92660    0.35940    1.000
    H106     H        0.51230    0.96020    0.34030    1.000
    C123     C        0.55580    0.93230    0.42310    1.000
    H107     H        0.54740    0.97150    0.44530    1.000
    C124     C        0.58600    0.88520    0.45210    1.000
    H108     H        0.59760    0.89070    0.49460    1.000
    C125     C        0.60150    0.82680    0.42090    1.000
    C126     C        0.58180    0.81840    0.35760    1.000
    H109     H        0.59030    0.77850    0.33650    1.000
    C127     C        0.53080    0.85890    0.25990    1.000
    C128     C        0.63720    0.77410    0.45570    1.000
    H110     H        0.64410    0.73720    0.42760    1.000
    H111     H        0.67060    0.79530    0.47160    1.000
    H112     H        0.61970    0.75600    0.49000    1.000
    N63      N        0.38580    0.89570    0.01590    1.000
    N64      N        0.50280    0.54920    0.41850    1.000
    Ag24     Ag       0.47400    0.08680    0.93590    1.000
    Ag25     Ag       0.34000    0.69070    0.01870    1.000
    Ag26     Ag       0.57100    0.02670    0.94080    1.000
    Ag27     Ag       0.30030    0.78943    0.55729    1.000
    C129     C        0.03920    0.72340    0.03870    1.000
    N65      N        0.01910    0.59720    0.03510    1.000
    Ag28     Ag       0.09671    0.78367    0.37033    1.000
    N66      N        0.01760    0.54820    0.08040    1.000
    C130     C        0.07870    0.76760    0.06970    1.000
    H113     H        0.09720    0.75530    0.10810    1.000
    N67      N        0.02570    0.57640    0.13630    1.000
    C131     C        0.08880    0.83040    0.04080    1.000
    H114     H        0.11490    0.86010    0.05980    1.000
    N68      N        0.03380    0.64580    0.12880    1.000
    C132     C        0.06100    0.84820    0.98520    1.000
    H115     H        0.06880    0.89010    0.96690    1.000
    Ag29     Ag       0.99044    0.43202    0.06623    1.000
    N69      N        0.15890    0.63920    0.36770    1.000
    C133     C        0.02190    0.80690    0.95480    1.000
    Ag30     Ag       0.05480    0.51748    0.22997    1.000
    C134     C        0.01230    0.74350    0.98180    1.000
    H116     H        0.98710    0.71380    0.96110    1.000
    N70      N        0.12700    0.68350    0.33240    1.000
    Ag31     Ag       0.03605    0.71266    0.21514    1.000
    N71      N        0.09490    0.65110    0.29280    1.000
    C135     C        0.98620    0.83010    0.89570    1.000
    H117     H        0.96160    0.79370    0.88200    1.000
    H118     H        0.00840    0.84070    0.86300    1.000
    H119     H        0.96630    0.87050    0.90530    1.000
    N72      N        0.10300    0.58060    0.30070    1.000
    C136     C        0.02940    0.65640    0.06760    1.000
    Ag32     Ag       0.41928    0.71026    0.62467    1.000
    C137     C        0.16610    0.51090    0.37380    1.000
    Ag33     Ag       0.23201    0.67366    0.42594    1.000
    C138     C        0.18980    0.51060    0.43570    1.000
    H120     H        0.18990    0.55060    0.45980    1.000
    N73      N        0.37680    0.66520    0.54240    1.000
    C139     C        0.21350    0.45040    0.46150    1.000
    H121     H        0.22830    0.44950    0.50330    1.000
    N74      N        0.33530    0.69580    0.51010    1.000
    C140     C        0.21460    0.39070    0.42350    1.000
    H122     H        0.23060    0.35050    0.44030    1.000
    N75      N        0.31710    0.65710    0.46250    1.000
    C141     C        0.19220    0.39170    0.36230    1.000
    C142     C        0.16620    0.45220    0.33860    1.000
    H123     H        0.14870    0.45220    0.29800    1.000
    C143     C        0.19230    0.32950    0.32130    1.000
    H124     H        0.17490    0.34030    0.28030    1.000
    H125     H        0.17330    0.29260    0.33940    1.000
    H126     H        0.22870    0.31540    0.31790    1.000
    C144     C        0.14220    0.57550    0.34760    1.000
    C145     C        0.34350    0.54230    0.42030    1.000
    N76      N        0.21120    0.80530    0.53420    1.000
    C146     C        0.32180    0.55450    0.35880    1.000
    H127     H        0.31050    0.59860    0.34620    1.000
    N77      N        0.19080    0.77530    0.47870    1.000
    N78      N        0.14710    0.80560    0.45800    1.000
    C147     C        0.31710    0.49940    0.31580    1.000
    H128     H        0.30390    0.50720    0.27410    1.000
    N79      N        0.13750    0.85700    0.49720    1.000
    C148     C        0.33160    0.43610    0.33490    1.000
    H129     H        0.32620    0.39980    0.30640    1.000
    N80      N        0.00240    0.88510    0.33490    1.000
    C149     C        0.35450    0.42200    0.39560    1.000
    N81      N        0.98080    0.91420    0.28030    1.000
    C150     C        0.36020    0.47590    0.43740    1.000
    H130     H        0.37560    0.46770    0.47830    1.000
    N82      N        0.00960    0.81060    0.26130    1.000
    C151     C        0.36850    0.34970    0.41470    1.000
    H131     H        0.36180    0.31970    0.37900    1.000
    H132     H        0.34690    0.33550    0.44690    1.000
    H133     H        0.40590    0.34740    0.43050    1.000
    N83      N        0.01970    0.82350    0.32280    1.000
    C152     C        0.34820    0.59970    0.46520    1.000
    N84      N        0.35600    0.84610    0.62650    1.000
    N85      N        0.38710    0.80540    0.66660    1.000
    N86      N        0.39640    0.90930    0.70200    1.000
    N87      N        0.41220    0.84390    0.71060    1.000
    C153     C        0.17200    0.91760    0.58950    1.000
    C154     C        0.19400    0.90610    0.65110    1.000
    H134     H        0.20850    0.86310    0.66260    1.000
    C155     C        0.19440    0.95880    0.69530    1.000
    H135     H        0.20920    0.95110    0.73650    1.000
    C156     C        0.17280    0.02300    0.67800    1.000
    H136     H        0.17310    0.05830    0.70750    1.000
    C157     C        0.15070    0.03450    0.61640    1.000
    C158     C        0.15030    0.98180    0.57220    1.000
    H137     H        0.13560    0.98960    0.53100    1.000
    C159     C        0.12780    0.10310    0.59460    1.000
    H138     H        0.13050    0.13490    0.62930    1.000
    H139     H        0.09070    0.09750    0.57850    1.000
    H140     H        0.14770    0.12090    0.56200    1.000
    C160     C        0.17850    0.85420    0.54440    1.000
    C161     C        0.33230    0.96880    0.62170    1.000
    C162     C        0.30800    0.96300    0.56070    1.000
    H141     H        0.31340    0.92350    0.53750    1.000
    C163     C        0.27540    0.01630    0.53360    1.000
    H142     H        0.25840    0.01210    0.49290    1.000
    C164     C        0.26890    0.07560    0.56890    1.000
    H143     H        0.24700    0.11090    0.55130    1.000
    C165     C        0.29400    0.08360    0.62880    1.000
    C166     C        0.32470    0.02890    0.65500    1.000
    H144     H        0.34060    0.03270    0.69610    1.000
    C167     C        0.28330    0.14650    0.66820    1.000
    H145     H        0.30420    0.14320    0.70840    1.000
    H146     H        0.24570    0.14840    0.67400    1.000
    H147     H        0.29320    0.18760    0.64710    1.000
    C168     C        0.36190    0.90900    0.65020    1.000
    C169     C        0.94000    0.81960    0.13660    1.000
    H148     H        0.93540    0.77810    0.15740    1.000
    C170     C        0.97440    0.93490    0.13710    1.000
    H149     H        0.99200    0.97180    0.15830    1.000
    C171     C        0.95660    0.94140    0.07440    1.000
    H150     H        0.96350    0.98160    0.05270    1.000
    C172     C        0.92910    0.88890    0.04450    1.000
    H151     H        0.91520    0.89500    0.00280    1.000
    C173     C        0.92050    0.82610    0.07370    1.000
    C174     C        0.96660    0.87410    0.16930    1.000
    C175     C        0.88860    0.76780    0.04060    1.000
    H152     H        0.87810    0.78060    0.99760    1.000
    H153     H        0.85700    0.75900    0.06130    1.000
    H154     H        0.91040    0.72690    0.04170    1.000
    C176     C        0.98600    0.86540    0.23630    1.000
    Ag34     Ag       0.48757    0.79435    0.77735    1.000
    Ag35     Ag       0.44005    0.98330    0.76698    1.000
    Ag36     Ag       0.47682    0.93642    0.06083    1.000
    N88      N        0.49790    0.89960    0.96060    1.000
    N89      N        0.49410    0.92670    0.86140    1.000
    N90      N        0.48270    0.85860    0.86410    1.000
    C177     C        0.47150    0.77360    0.94920    1.000
    C178     C        0.43400    0.73380    0.91310    1.000
    H155     H        0.41860    0.75020    0.87440    1.000
    C179     C        0.41930    0.66960    0.93420    1.000
    H156     H        0.39430    0.64250    0.91010    1.000
    N91      N        0.49950    0.68230    0.67160    1.000
    C180     C        0.44240    0.64690    0.99150    1.000
    H157     H        0.43200    0.60410    0.00580    1.000
    N92      N        0.51160    0.61780    0.66190    1.000
    C181     C        0.48090    0.68520    0.02970    1.000
    N93      N        0.53240    0.58960    0.71700    1.000
    C182     C        0.49450    0.75170    0.00690    1.000
    H158     H        0.51880    0.77990    0.03100    1.000
    C183     C        0.50720    0.65710    0.09050    1.000
    H159     H        0.53220    0.69050    0.10970    1.000
    H160     H        0.52610    0.61530    0.08270    1.000
    H161     H        0.48020    0.64750    0.11810    1.000
    N94      N        0.51260    0.69770    0.73290    1.000
    C184     C        0.48450    0.84440    0.92550    1.000
    C185     C        0.54990    0.63130    0.82580    1.000
    C186     C        0.53510    0.57340    0.85940    1.000
    H162     H        0.51230    0.53980    0.84030    1.000
    C187     C        0.55580    0.56770    0.92310    1.000
    H163     H        0.54740    0.52850    0.94530    1.000
    C188     C        0.58600    0.61480    0.95210    1.000
    H164     H        0.59760    0.60930    0.99460    1.000
    C189     C        0.60150    0.67320    0.92090    1.000
    C190     C        0.58180    0.68160    0.85760    1.000
    H165     H        0.59030    0.72150    0.83650    1.000
    C191     C        0.53080    0.64110    0.75990    1.000
    C192     C        0.63720    0.72590    0.95570    1.000
    H166     H        0.64410    0.76280    0.92760    1.000
    H167     H        0.67060    0.70470    0.97160    1.000
    H168     H        0.61970    0.74400    0.99000    1.000
    N95      N        0.38580    0.60430    0.51590    1.000
    N96      N        0.50280    0.95080    0.91850    1.000
    Ag37     Ag       0.47400    0.41320    0.43590    1.000
    Ag38     Ag       0.34000    0.80930    0.51870    1.000
    Ag39     Ag       0.57100    0.47330    0.44080    1.000
    Ag40     Ag       0.69970    0.28943    0.94271    1.000
    C193     C        0.96080    0.22340    0.46130    1.000
    N97      N        0.98090    0.09720    0.46490    1.000
    Ag41     Ag       0.90329    0.28367    0.12967    1.000
    N98      N        0.98240    0.04820    0.41960    1.000
    C194     C        0.92130    0.26760    0.43030    1.000
    H169     H        0.90280    0.25530    0.39190    1.000
    N99      N        0.97430    0.07640    0.36370    1.000
    C195     C        0.91120    0.33040    0.45920    1.000
    H170     H        0.88510    0.36010    0.44020    1.000
    N100     N        0.96620    0.14580    0.37120    1.000
    C196     C        0.93900    0.34820    0.51480    1.000
    H171     H        0.93120    0.39010    0.53310    1.000
    Ag42     Ag       0.00956    0.93202    0.43377    1.000
    N101     N        0.84110    0.13920    0.13230    1.000
    C197     C        0.97810    0.30690    0.54520    1.000
    Ag43     Ag       0.94520    0.01748    0.27003    1.000
    C198     C        0.98770    0.24350    0.51820    1.000
    H172     H        0.01290    0.21380    0.53890    1.000
    N102     N        0.87300    0.18350    0.16760    1.000
    Ag44     Ag       0.96395    0.21266    0.28486    1.000
    N103     N        0.90510    0.15110    0.20720    1.000
    C199     C        0.01380    0.33010    0.60430    1.000
    H173     H        0.03840    0.29370    0.61800    1.000
    H174     H        0.99160    0.34070    0.63700    1.000
    H175     H        0.03370    0.37050    0.59470    1.000
    N104     N        0.89700    0.08060    0.19930    1.000
    C200     C        0.97060    0.15640    0.43240    1.000
    Ag45     Ag       0.58072    0.21026    0.87533    1.000
    C201     C        0.83390    0.01090    0.12620    1.000
    Ag46     Ag       0.76799    0.17366    0.07406    1.000
    C202     C        0.81020    0.01060    0.06430    1.000
    H176     H        0.81010    0.05060    0.04020    1.000
    N105     N        0.62320    0.16520    0.95760    1.000
    C203     C        0.78650    0.95040    0.03850    1.000
    H177     H        0.77170    0.94950    0.99670    1.000
    N106     N        0.66470    0.19580    0.98990    1.000
    C204     C        0.78540    0.89070    0.07650    1.000
    H178     H        0.76940    0.85050    0.05970    1.000
    N107     N        0.68290    0.15710    0.03750    1.000
    C205     C        0.80780    0.89170    0.13770    1.000
    C206     C        0.83380    0.95220    0.16140    1.000
    H179     H        0.85130    0.95220    0.20200    1.000
    C207     C        0.80770    0.82950    0.17870    1.000
    H180     H        0.82510    0.84030    0.21970    1.000
    H181     H        0.82670    0.79260    0.16060    1.000
    H182     H        0.77130    0.81540    0.18210    1.000
    C208     C        0.85780    0.07550    0.15240    1.000
    C209     C        0.65650    0.04230    0.07970    1.000
    N108     N        0.78880    0.30530    0.96580    1.000
    C210     C        0.67820    0.05450    0.14120    1.000
    H183     H        0.68950    0.09860    0.15380    1.000
    N109     N        0.80920    0.27530    0.02130    1.000
    N110     N        0.85290    0.30560    0.04200    1.000
    C211     C        0.68290    0.99940    0.18420    1.000
    H184     H        0.69610    0.00720    0.22590    1.000
    N111     N        0.86250    0.35700    0.00280    1.000
    C212     C        0.66840    0.93610    0.16510    1.000
    H185     H        0.67380    0.89980    0.19360    1.000
    N112     N        0.99760    0.38510    0.16510    1.000
    C213     C        0.64550    0.92200    0.10440    1.000
    N113     N        0.01920    0.41420    0.21970    1.000
    C214     C        0.63980    0.97590    0.06260    1.000
    H186     H        0.62440    0.96770    0.02170    1.000
    N114     N        0.99040    0.31060    0.23870    1.000
    C215     C        0.63150    0.84970    0.08530    1.000
    H187     H        0.63820    0.81970    0.12100    1.000
    H188     H        0.65310    0.83550    0.05310    1.000
    H189     H        0.59410    0.84740    0.06950    1.000
    N115     N        0.98030    0.32350    0.17720    1.000
    C216     C        0.65180    0.09970    0.03480    1.000
    N116     N        0.64400    0.34610    0.87350    1.000
    N117     N        0.61290    0.30540    0.83340    1.000
    N118     N        0.60360    0.40930    0.79800    1.000
    N119     N        0.58780    0.34390    0.78940    1.000
    C217     C        0.82800    0.41760    0.91050    1.000
    C218     C        0.80600    0.40610    0.84890    1.000
    H190     H        0.79150    0.36310    0.83740    1.000
    C219     C        0.80560    0.45880    0.80470    1.000
    H191     H        0.79080    0.45110    0.76350    1.000
    C220     C        0.82720    0.52300    0.82200    1.000
    H192     H        0.82690    0.55830    0.79250    1.000
    C221     C        0.84930    0.53450    0.88360    1.000
    C222     C        0.84970    0.48180    0.92780    1.000
    H193     H        0.86440    0.48960    0.96900    1.000
    C223     C        0.87220    0.60310    0.90540    1.000
    H194     H        0.86950    0.63490    0.87070    1.000
    H195     H        0.90930    0.59750    0.92150    1.000
    H196     H        0.85230    0.62090    0.93800    1.000
    C224     C        0.82150    0.35420    0.95560    1.000
    C225     C        0.66770    0.46880    0.87830    1.000
    C226     C        0.69200    0.46300    0.93930    1.000
    H197     H        0.68660    0.42350    0.96250    1.000
    C227     C        0.72460    0.51630    0.96640    1.000
    H198     H        0.74160    0.51210    0.00710    1.000
    C228     C        0.73110    0.57560    0.93110    1.000
    H199     H        0.75300    0.61090    0.94870    1.000
    C229     C        0.70600    0.58360    0.87120    1.000
    C230     C        0.67530    0.52890    0.84500    1.000
    H200     H        0.65940    0.53270    0.80390    1.000
    C231     C        0.71670    0.64650    0.83180    1.000
    H201     H        0.69580    0.64320    0.79160    1.000
    H202     H        0.75430    0.64840    0.82600    1.000
    H203     H        0.70680    0.68760    0.85290    1.000
    C232     C        0.63810    0.40900    0.84980    1.000
    C233     C        0.06000    0.31960    0.36340    1.000
    H204     H        0.06460    0.27810    0.34260    1.000
    C234     C        0.02560    0.43490    0.36290    1.000
    H205     H        0.00800    0.47180    0.34170    1.000
    C235     C        0.04340    0.44140    0.42560    1.000
    H206     H        0.03650    0.48160    0.44730    1.000
    C236     C        0.07090    0.38890    0.45550    1.000
    H207     H        0.08480    0.39500    0.49720    1.000
    C237     C        0.07950    0.32610    0.42630    1.000
    C238     C        0.03340    0.37410    0.33070    1.000
    C239     C        0.11140    0.26780    0.45940    1.000
    H208     H        0.12190    0.28060    0.50240    1.000
    H209     H        0.14300    0.25900    0.43870    1.000
    H210     H        0.08960    0.22690    0.45830    1.000
    C240     C        0.01400    0.36540    0.26370    1.000
    Ag47     Ag       0.51243    0.29435    0.72265    1.000
    Ag48     Ag       0.55995    0.48330    0.73302    1.000
    Ag49     Ag       0.52318    0.43642    0.43917    1.000
    N120     N        0.50210    0.39960    0.53940    1.000
    N121     N        0.50590    0.42670    0.63860    1.000
    N122     N        0.51730    0.35860    0.63590    1.000
    C241     C        0.52850    0.27360    0.55080    1.000
    C242     C        0.56600    0.23380    0.58690    1.000
    H211     H        0.58140    0.25020    0.62560    1.000
    C243     C        0.58070    0.16960    0.56580    1.000
    H212     H        0.60570    0.14250    0.58990    1.000
    N123     N        0.50050    0.18230    0.82840    1.000
    C244     C        0.55760    0.14690    0.50850    1.000
    H213     H        0.56800    0.10410    0.49420    1.000
    N124     N        0.48840    0.11780    0.83810    1.000
    C245     C        0.51910    0.18520    0.47030    1.000
    N125     N        0.46760    0.08960    0.78300    1.000
    C246     C        0.50550    0.25170    0.49310    1.000
    H214     H        0.48120    0.27990    0.46900    1.000
    C247     C        0.49280    0.15710    0.40950    1.000
    H215     H        0.46780    0.19050    0.39030    1.000
    H216     H        0.47390    0.11530    0.41730    1.000
    H217     H        0.51980    0.14750    0.38190    1.000
    N126     N        0.48740    0.19770    0.76710    1.000
    C248     C        0.51550    0.34440    0.57450    1.000
    C249     C        0.45010    0.13130    0.67420    1.000
    C250     C        0.46490    0.07340    0.64060    1.000
    H218     H        0.48770    0.03980    0.65970    1.000
    C251     C        0.44420    0.06770    0.57690    1.000
    H219     H        0.45260    0.02850    0.55470    1.000
    C252     C        0.41400    0.11480    0.54790    1.000
    H220     H        0.40240    0.10930    0.50540    1.000
    C253     C        0.39850    0.17320    0.57910    1.000
    C254     C        0.41820    0.18160    0.64240    1.000
    H221     H        0.40970    0.22150    0.66350    1.000
    C255     C        0.46920    0.14110    0.74010    1.000
    C256     C        0.36280    0.22590    0.54430    1.000
    H222     H        0.35590    0.26280    0.57240    1.000
    H223     H        0.32940    0.20470    0.52840    1.000
    H224     H        0.38030    0.24400    0.51000    1.000
    N127     N        0.61420    0.10430    0.98410    1.000
    N128     N        0.49720    0.45080    0.58150    1.000
    Ag50     Ag       0.52600    0.91320    0.06410    1.000
    Ag51     Ag       0.66000    0.30930    0.98130    1.000
    Ag52     Ag       0.42900    0.97330    0.05920    1.000
