# CIF file generated by openbabel 3.1.0, see https://openbabel.org
data_I
_chemical_name_common 'image0'
_cell_length_a 35.91
_cell_length_b 14.833
_cell_length_c 32.04
_cell_angle_alpha 90
_cell_angle_beta 102.977
_cell_angle_gamma 90
_space_group_name_H-M_alt 'P 1'
_space_group_name_Hall 'P 1'
loop_
    _symmetry_equiv_pos_as_xyz
    x,y,z
loop_
    _atom_site_label
    _atom_site_type_symbol
    _atom_site_fract_x
    _atom_site_fract_y
    _atom_site_fract_z
    _atom_site_occupancy
    I1       I        0.39548    0.76237    0.90472    1.000
    I2       I        0.72475    0.23084    0.78916    1.000
    I3       I        0.61928    0.15515    0.69325    1.000
    I4       I        0.35655    0.91676    0.01091    1.000
    I5       I        0.62482    0.74269    0.04369    1.000
    I6       I        0.53243    0.65371    0.11554    1.000
    Zn1      Zn       0.66465    0.13170    0.76684    1.000
    Zn2      Zn       0.37553    0.90645    0.93862    1.000
    Zn3      Zn       0.59000    0.62888    0.08142    1.000
    C1       C        0.64300    0.21190    0.84470    1.000
    H1       H        0.66460    0.24890    0.84470    1.000
    C2       C        0.62270    0.22930    0.87440    1.000
    H2       H        0.62960    0.27820    0.89380    1.000
    C3       C        0.59200    0.17640    0.87650    1.000
    C4       C        0.56830    0.19550    0.90880    1.000
    C5       C        0.53660    0.39220    0.01290    1.000
    H3       H        0.51380    0.35910    0.01190    1.000
    C6       C        0.56340    0.36240    0.98990    1.000
    C7       C        0.54400    0.47110    0.03700    1.000
    H4       H        0.52570    0.49150    0.05230    1.000
    C8       C        0.59670    0.41270    0.99190    1.000
    H5       H        0.61540    0.39500    0.97670    1.000
    C9       C        0.52040    0.15500    0.94080    1.000
    C10      C        0.60130    0.49070    0.01760    1.000
    H6       H        0.62390    0.52520    0.01940    1.000
    C11      C        0.55610    0.27820    0.96300    1.000
    C12      C        0.48580    0.09860    0.94210    1.000
    C13      C        0.60540    0.09270    0.81700    1.000
    H7       H        0.59940    0.04400    0.79740    1.000
    C14      C        0.58280    0.10620    0.84730    1.000
    H8       H        0.56160    0.06810    0.84770    1.000
    C15      C        0.69574    0.58050    0.73800    1.000
    C16      C        0.82350    0.55210    0.89560    1.000
    H9       H        0.83810    0.58560    0.91890    1.000
    C17      C        0.81160    0.41870    0.85870    1.000
    H10      H        0.81710    0.35660    0.85610    1.000
    C18      C        0.67380    0.52750    0.70090    1.000
    C19      C        0.65660    0.39190    0.65960    1.000
    H11      H        0.66060    0.32930    0.65590    1.000
    C20      C        0.65550    0.93640    0.74680    1.000
    H12      H        0.63290    0.95820    0.72820    1.000
    C21      C        0.78270    0.45780    0.82780    1.000
    H13      H        0.76940    0.42350    0.80400    1.000
    C22      C        0.77345    0.54740    0.83210    1.000
    C23      C        0.70566    0.71390    0.77360    1.000
    C24      C        0.74259    0.59090    0.79940    1.000
    C25      C        0.69630    0.81100    0.77460    1.000
    C26      C        0.72020    0.87250    0.80160    1.000
    H14      H        0.74250    0.85210    0.82130    1.000
    C27      C        0.71070    0.96270    0.79910    1.000
    H15      H        0.72720    0.00380    0.81720    1.000
    C28      C        0.64610    0.57200    0.66940    1.000
    H16      H        0.64190    0.63480    0.67170    1.000
    C29      C        0.79480    0.59610    0.86690    1.000
    H17      H        0.78960    0.65800    0.87070    1.000
    C30      C        0.62520    0.52350    0.63550    1.000
    H18      H        0.60660    0.55450    0.61460    1.000
    C31      C        0.67880    0.43570    0.69530    1.000
    H19      H        0.69720    0.40290    0.71550    1.000
    C32      C        0.66330    0.84390    0.74710    1.000
    H20      H        0.64640    0.80400    0.72890    1.000
    C33      C        0.43620    0.00020    0.90590    1.000
    H21      H        0.42390    0.96850    0.88080    1.000
    C34      C        0.43800    0.04120    0.97590    1.000
    H22      H        0.42750    0.03780    0.00050    1.000
    C35      C        0.46980    0.09500    0.97730    1.000
    H23      H        0.48050    0.12900    0.00230    1.000
    C36      C        0.46810    0.05060    0.90430    1.000
    H24      H        0.47790    0.05310    0.87910    1.000
    N1       N        0.42138    0.99330    0.94060    1.000
    N2       N        0.53944    0.13710    0.90990    1.000
    N3       N        0.57724    0.26870    0.93330    1.000
    N4       N        0.52820    0.22220    0.97050    1.000
    N5       N        0.63520    0.14640    0.81500    1.000
    N6       N        0.57634    0.51930    0.03930    1.000
    N7       N        0.62982    0.43460    0.63040    1.000
    N8       N        0.68476    0.66670    0.74050    1.000
    N9       N        0.72405    0.53950    0.76610    1.000
    N10      N        0.73445    0.67960    0.80470    1.000
    N11      N        0.83204    0.46470    0.89220    1.000
    N12      N        0.67893    0.99610    0.77200    1.000
    I7       I        0.89548    0.26237    0.90472    1.000
    I8       I        0.22475    0.73084    0.78916    1.000
    I9       I        0.11928    0.65515    0.69325    1.000
    I10      I        0.85655    0.41676    0.01091    1.000
    I11      I        0.12482    0.24269    0.04369    1.000
    I12      I        0.03243    0.15371    0.11554    1.000
    Zn4      Zn       0.16465    0.63170    0.76684    1.000
    Zn5      Zn       0.87553    0.40645    0.93862    1.000
    Zn6      Zn       0.09000    0.12888    0.08142    1.000
    C37      C        0.14300    0.71190    0.84470    1.000
    H25      H        0.16460    0.74890    0.84470    1.000
    C38      C        0.12270    0.72930    0.87440    1.000
    H26      H        0.12960    0.77820    0.89380    1.000
    C39      C        0.09200    0.67640    0.87650    1.000
    C40      C        0.06830    0.69550    0.90880    1.000
    C41      C        0.03660    0.89220    0.01290    1.000
    H27      H        0.01380    0.85910    0.01190    1.000
    C42      C        0.06340    0.86240    0.98990    1.000
    C43      C        0.04400    0.97110    0.03700    1.000
    H28      H        0.02570    0.99150    0.05230    1.000
    C44      C        0.09670    0.91270    0.99190    1.000
    H29      H        0.11540    0.89500    0.97670    1.000
    C45      C        0.02040    0.65500    0.94080    1.000
    C46      C        0.10130    0.99070    0.01760    1.000
    H30      H        0.12390    0.02520    0.01940    1.000
    C47      C        0.05610    0.77820    0.96300    1.000
    C48      C        0.98580    0.59860    0.94210    1.000
    C49      C        0.10540    0.59270    0.81700    1.000
    H31      H        0.09940    0.54400    0.79740    1.000
    C50      C        0.08280    0.60620    0.84730    1.000
    H32      H        0.06160    0.56810    0.84770    1.000
    C51      C        0.19574    0.08050    0.73800    1.000
    C52      C        0.32350    0.05210    0.89560    1.000
    H33      H        0.33810    0.08560    0.91890    1.000
    C53      C        0.31160    0.91870    0.85870    1.000
    H34      H        0.31710    0.85660    0.85610    1.000
    C54      C        0.17380    0.02750    0.70090    1.000
    C55      C        0.15660    0.89190    0.65960    1.000
    H35      H        0.16060    0.82930    0.65590    1.000
    C56      C        0.15550    0.43640    0.74680    1.000
    H36      H        0.13290    0.45820    0.72820    1.000
    C57      C        0.28270    0.95780    0.82780    1.000
    H37      H        0.26940    0.92350    0.80400    1.000
    C58      C        0.27345    0.04740    0.83210    1.000
    C59      C        0.20566    0.21390    0.77360    1.000
    C60      C        0.24259    0.09090    0.79940    1.000
    C61      C        0.19630    0.31100    0.77460    1.000
    C62      C        0.22020    0.37250    0.80160    1.000
    H38      H        0.24250    0.35210    0.82130    1.000
    C63      C        0.21070    0.46270    0.79910    1.000
    H39      H        0.22720    0.50380    0.81720    1.000
    C64      C        0.14610    0.07200    0.66940    1.000
    H40      H        0.14190    0.13480    0.67170    1.000
    C65      C        0.29480    0.09610    0.86690    1.000
    H41      H        0.28960    0.15800    0.87070    1.000
    C66      C        0.12520    0.02350    0.63550    1.000
    H42      H        0.10660    0.05450    0.61460    1.000
    C67      C        0.17880    0.93570    0.69530    1.000
    H43      H        0.19720    0.90290    0.71550    1.000
    C68      C        0.16330    0.34390    0.74710    1.000
    H44      H        0.14640    0.30400    0.72890    1.000
    C69      C        0.93620    0.50020    0.90590    1.000
    H45      H        0.92390    0.46850    0.88080    1.000
    C70      C        0.93800    0.54120    0.97590    1.000
    H46      H        0.92750    0.53780    0.00050    1.000
    C71      C        0.96980    0.59500    0.97730    1.000
    H47      H        0.98050    0.62900    0.00230    1.000
    C72      C        0.96810    0.55060    0.90430    1.000
    H48      H        0.97790    0.55310    0.87910    1.000
    N13      N        0.92138    0.49330    0.94060    1.000
    N14      N        0.03944    0.63710    0.90990    1.000
    N15      N        0.07724    0.76870    0.93330    1.000
    N16      N        0.02820    0.72220    0.97050    1.000
    N17      N        0.13520    0.64640    0.81500    1.000
    N18      N        0.07634    0.01930    0.03930    1.000
    N19      N        0.12982    0.93460    0.63040    1.000
    N20      N        0.18476    0.16670    0.74050    1.000
    N21      N        0.22405    0.03950    0.76610    1.000
    N22      N        0.23445    0.17960    0.80470    1.000
    N23      N        0.33204    0.96470    0.89220    1.000
    N24      N        0.17893    0.49610    0.77200    1.000
    I13      I        0.39548    0.23763    0.40472    1.000
    I14      I        0.72475    0.76916    0.28916    1.000
    I15      I        0.61928    0.84485    0.19325    1.000
    I16      I        0.35655    0.08324    0.51091    1.000
    I17      I        0.62482    0.25731    0.54369    1.000
    I18      I        0.53243    0.34629    0.61554    1.000
    Zn7      Zn       0.66465    0.86830    0.26684    1.000
    Zn8      Zn       0.37553    0.09355    0.43862    1.000
    Zn9      Zn       0.59000    0.37112    0.58142    1.000
    C73      C        0.64300    0.78810    0.34470    1.000
    H49      H        0.66460    0.75110    0.34470    1.000
    C74      C        0.62270    0.77070    0.37440    1.000
    H50      H        0.62960    0.72180    0.39380    1.000
    C75      C        0.59200    0.82360    0.37650    1.000
    C76      C        0.56830    0.80450    0.40880    1.000
    C77      C        0.53660    0.60780    0.51290    1.000
    H51      H        0.51380    0.64090    0.51190    1.000
    C78      C        0.56340    0.63760    0.48990    1.000
    C79      C        0.54400    0.52890    0.53700    1.000
    H52      H        0.52570    0.50850    0.55230    1.000
    C80      C        0.59670    0.58730    0.49190    1.000
    H53      H        0.61540    0.60500    0.47670    1.000
    C81      C        0.52040    0.84500    0.44080    1.000
    C82      C        0.60130    0.50930    0.51760    1.000
    H54      H        0.62390    0.47480    0.51940    1.000
    C83      C        0.55610    0.72180    0.46300    1.000
    C84      C        0.48580    0.90140    0.44210    1.000
    C85      C        0.60540    0.90730    0.31700    1.000
    H55      H        0.59940    0.95600    0.29740    1.000
    C86      C        0.58280    0.89380    0.34730    1.000
    H56      H        0.56160    0.93190    0.34770    1.000
    C87      C        0.69574    0.41950    0.23800    1.000
    C88      C        0.82350    0.44790    0.39560    1.000
    H57      H        0.83810    0.41440    0.41890    1.000
    C89      C        0.81160    0.58130    0.35870    1.000
    H58      H        0.81710    0.64340    0.35610    1.000
    C90      C        0.67380    0.47250    0.20090    1.000
    C91      C        0.65660    0.60810    0.15960    1.000
    H59      H        0.66060    0.67070    0.15590    1.000
    C92      C        0.65550    0.06360    0.24680    1.000
    H60      H        0.63290    0.04180    0.22820    1.000
    C93      C        0.78270    0.54220    0.32780    1.000
    H61      H        0.76940    0.57650    0.30400    1.000
    C94      C        0.77345    0.45260    0.33210    1.000
    C95      C        0.70566    0.28610    0.27360    1.000
    C96      C        0.74259    0.40910    0.29940    1.000
    C97      C        0.69630    0.18900    0.27460    1.000
    C98      C        0.72020    0.12750    0.30160    1.000
    H62      H        0.74250    0.14790    0.32130    1.000
    C99      C        0.71070    0.03730    0.29910    1.000
    H63      H        0.72720    0.99620    0.31720    1.000
    C100     C        0.64610    0.42800    0.16940    1.000
    H64      H        0.64190    0.36520    0.17170    1.000
    C101     C        0.79480    0.40390    0.36690    1.000
    H65      H        0.78960    0.34200    0.37070    1.000
    C102     C        0.62520    0.47650    0.13550    1.000
    H66      H        0.60660    0.44550    0.11460    1.000
    C103     C        0.67880    0.56430    0.19530    1.000
    H67      H        0.69720    0.59710    0.21550    1.000
    C104     C        0.66330    0.15610    0.24710    1.000
    H68      H        0.64640    0.19600    0.22890    1.000
    C105     C        0.43620    0.99980    0.40590    1.000
    H69      H        0.42390    0.03150    0.38080    1.000
    C106     C        0.43800    0.95880    0.47590    1.000
    H70      H        0.42750    0.96220    0.50050    1.000
    C107     C        0.46980    0.90500    0.47730    1.000
    H71      H        0.48050    0.87100    0.50230    1.000
    C108     C        0.46810    0.94940    0.40430    1.000
    H72      H        0.47790    0.94690    0.37910    1.000
    N25      N        0.42138    0.00670    0.44060    1.000
    N26      N        0.53944    0.86290    0.40990    1.000
    N27      N        0.57724    0.73130    0.43330    1.000
    N28      N        0.52820    0.77780    0.47050    1.000
    N29      N        0.63520    0.85360    0.31500    1.000
    N30      N        0.57634    0.48070    0.53930    1.000
    N31      N        0.62982    0.56540    0.13040    1.000
    N32      N        0.68476    0.33330    0.24050    1.000
    N33      N        0.72405    0.46050    0.26610    1.000
    N34      N        0.73445    0.32040    0.30470    1.000
    N35      N        0.83204    0.53530    0.39220    1.000
    N36      N        0.67893    0.00390    0.27200    1.000
    I19      I        0.89548    0.73763    0.40472    1.000
    I20      I        0.22475    0.26916    0.28916    1.000
    I21      I        0.11928    0.34485    0.19325    1.000
    I22      I        0.85655    0.58324    0.51091    1.000
    I23      I        0.12482    0.75731    0.54369    1.000
    I24      I        0.03243    0.84629    0.61554    1.000
    Zn10     Zn       0.16465    0.36830    0.26684    1.000
    Zn11     Zn       0.87553    0.59355    0.43862    1.000
    Zn12     Zn       0.09000    0.87112    0.58142    1.000
    C109     C        0.14300    0.28810    0.34470    1.000
    H73      H        0.16460    0.25110    0.34470    1.000
    C110     C        0.12270    0.27070    0.37440    1.000
    H74      H        0.12960    0.22180    0.39380    1.000
    C111     C        0.09200    0.32360    0.37650    1.000
    C112     C        0.06830    0.30450    0.40880    1.000
    C113     C        0.03660    0.10780    0.51290    1.000
    H75      H        0.01380    0.14090    0.51190    1.000
    C114     C        0.06340    0.13760    0.48990    1.000
    C115     C        0.04400    0.02890    0.53700    1.000
    H76      H        0.02570    0.00850    0.55230    1.000
    C116     C        0.09670    0.08730    0.49190    1.000
    H77      H        0.11540    0.10500    0.47670    1.000
    C117     C        0.02040    0.34500    0.44080    1.000
    C118     C        0.10130    0.00930    0.51760    1.000
    H78      H        0.12390    0.97480    0.51940    1.000
    C119     C        0.05610    0.22180    0.46300    1.000
    C120     C        0.98580    0.40140    0.44210    1.000
    C121     C        0.10540    0.40730    0.31700    1.000
    H79      H        0.09940    0.45600    0.29740    1.000
    C122     C        0.08280    0.39380    0.34730    1.000
    H80      H        0.06160    0.43190    0.34770    1.000
    C123     C        0.19574    0.91950    0.23800    1.000
    C124     C        0.32350    0.94790    0.39560    1.000
    H81      H        0.33810    0.91440    0.41890    1.000
    C125     C        0.31160    0.08130    0.35870    1.000
    H82      H        0.31710    0.14340    0.35610    1.000
    C126     C        0.17380    0.97250    0.20090    1.000
    C127     C        0.15660    0.10810    0.15960    1.000
    H83      H        0.16060    0.17070    0.15590    1.000
    C128     C        0.15550    0.56360    0.24680    1.000
    H84      H        0.13290    0.54180    0.22820    1.000
    C129     C        0.28270    0.04220    0.32780    1.000
    H85      H        0.26940    0.07650    0.30400    1.000
    C130     C        0.27345    0.95260    0.33210    1.000
    C131     C        0.20566    0.78610    0.27360    1.000
    C132     C        0.24259    0.90910    0.29940    1.000
    C133     C        0.19630    0.68900    0.27460    1.000
    C134     C        0.22020    0.62750    0.30160    1.000
    H86      H        0.24250    0.64790    0.32130    1.000
    C135     C        0.21070    0.53730    0.29910    1.000
    H87      H        0.22720    0.49620    0.31720    1.000
    C136     C        0.14610    0.92800    0.16940    1.000
    H88      H        0.14190    0.86520    0.17170    1.000
    C137     C        0.29480    0.90390    0.36690    1.000
    H89      H        0.28960    0.84200    0.37070    1.000
    C138     C        0.12520    0.97650    0.13550    1.000
    H90      H        0.10660    0.94550    0.11460    1.000
    C139     C        0.17880    0.06430    0.19530    1.000
    H91      H        0.19720    0.09710    0.21550    1.000
    C140     C        0.16330    0.65610    0.24710    1.000
    H92      H        0.14640    0.69600    0.22890    1.000
    C141     C        0.93620    0.49980    0.40590    1.000
    H93      H        0.92390    0.53150    0.38080    1.000
    C142     C        0.93800    0.45880    0.47590    1.000
    H94      H        0.92750    0.46220    0.50050    1.000
    C143     C        0.96980    0.40500    0.47730    1.000
    H95      H        0.98050    0.37100    0.50230    1.000
    C144     C        0.96810    0.44940    0.40430    1.000
    H96      H        0.97790    0.44690    0.37910    1.000
    N37      N        0.92138    0.50670    0.44060    1.000
    N38      N        0.03944    0.36290    0.40990    1.000
    N39      N        0.07724    0.23130    0.43330    1.000
    N40      N        0.02820    0.27780    0.47050    1.000
    N41      N        0.13520    0.35360    0.31500    1.000
    N42      N        0.07634    0.98070    0.53930    1.000
    N43      N        0.12982    0.06540    0.13040    1.000
    N44      N        0.18476    0.83330    0.24050    1.000
    N45      N        0.22405    0.96050    0.26610    1.000
    N46      N        0.23445    0.82040    0.30470    1.000
    N47      N        0.33204    0.03530    0.39220    1.000
    N48      N        0.17893    0.50390    0.27200    1.000
    I25      I        0.60452    0.76237    0.59528    1.000
    I26      I        0.27525    0.23084    0.71084    1.000
    I27      I        0.38072    0.15515    0.80675    1.000
    I28      I        0.64345    0.91676    0.48909    1.000
    I29      I        0.37518    0.74269    0.45631    1.000
    I30      I        0.46757    0.65371    0.38446    1.000
    Zn13     Zn       0.33535    0.13170    0.73316    1.000
    Zn14     Zn       0.62447    0.90645    0.56138    1.000
    Zn15     Zn       0.41000    0.62888    0.41858    1.000
    C145     C        0.35700    0.21190    0.65530    1.000
    H97      H        0.33540    0.24890    0.65530    1.000
    C146     C        0.37730    0.22930    0.62560    1.000
    H98      H        0.37040    0.27820    0.60620    1.000
    C147     C        0.40800    0.17640    0.62350    1.000
    C148     C        0.43170    0.19550    0.59120    1.000
    C149     C        0.46340    0.39220    0.48710    1.000
    H99      H        0.48620    0.35910    0.48810    1.000
    C150     C        0.43660    0.36240    0.51010    1.000
    C151     C        0.45600    0.47110    0.46300    1.000
    H100     H        0.47430    0.49150    0.44770    1.000
    C152     C        0.40330    0.41270    0.50810    1.000
    H101     H        0.38460    0.39500    0.52330    1.000
    C153     C        0.47960    0.15500    0.55920    1.000
    C154     C        0.39870    0.49070    0.48240    1.000
    H102     H        0.37610    0.52520    0.48060    1.000
    C155     C        0.44390    0.27820    0.53700    1.000
    C156     C        0.51420    0.09860    0.55790    1.000
    C157     C        0.39460    0.09270    0.68300    1.000
    H103     H        0.40060    0.04400    0.70260    1.000
    C158     C        0.41720    0.10620    0.65270    1.000
    H104     H        0.43840    0.06810    0.65230    1.000
    C159     C        0.30426    0.58050    0.76200    1.000
    C160     C        0.17650    0.55210    0.60440    1.000
    H105     H        0.16190    0.58560    0.58110    1.000
    C161     C        0.18840    0.41870    0.64130    1.000
    H106     H        0.18290    0.35660    0.64390    1.000
    C162     C        0.32620    0.52750    0.79910    1.000
    C163     C        0.34340    0.39190    0.84040    1.000
    H107     H        0.33940    0.32930    0.84410    1.000
    C164     C        0.34450    0.93640    0.75320    1.000
    H108     H        0.36710    0.95820    0.77180    1.000
    C165     C        0.21730    0.45780    0.67220    1.000
    H109     H        0.23060    0.42350    0.69600    1.000
    C166     C        0.22655    0.54740    0.66790    1.000
    C167     C        0.29434    0.71390    0.72640    1.000
    C168     C        0.25741    0.59090    0.70060    1.000
    C169     C        0.30370    0.81100    0.72540    1.000
    C170     C        0.27980    0.87250    0.69840    1.000
    H110     H        0.25750    0.85210    0.67870    1.000
    C171     C        0.28930    0.96270    0.70090    1.000
    H111     H        0.27280    0.00380    0.68280    1.000
    C172     C        0.35390    0.57200    0.83060    1.000
    H112     H        0.35810    0.63480    0.82830    1.000
    C173     C        0.20520    0.59610    0.63310    1.000
    H113     H        0.21040    0.65800    0.62930    1.000
    C174     C        0.37480    0.52350    0.86450    1.000
    H114     H        0.39340    0.55450    0.88540    1.000
    C175     C        0.32120    0.43570    0.80470    1.000
    H115     H        0.30280    0.40290    0.78450    1.000
    C176     C        0.33670    0.84390    0.75290    1.000
    H116     H        0.35360    0.80400    0.77110    1.000
    C177     C        0.56380    0.00020    0.59410    1.000
    H117     H        0.57610    0.96850    0.61920    1.000
    C178     C        0.56200    0.04120    0.52410    1.000
    H118     H        0.57250    0.03780    0.49950    1.000
    C179     C        0.53020    0.09500    0.52270    1.000
    H119     H        0.51950    0.12900    0.49770    1.000
    C180     C        0.53190    0.05060    0.59570    1.000
    H120     H        0.52210    0.05310    0.62090    1.000
    N49      N        0.57862    0.99330    0.55940    1.000
    N50      N        0.46056    0.13710    0.59010    1.000
    N51      N        0.42276    0.26870    0.56670    1.000
    N52      N        0.47180    0.22220    0.52950    1.000
    N53      N        0.36480    0.14640    0.68500    1.000
    N54      N        0.42366    0.51930    0.46070    1.000
    N55      N        0.37018    0.43460    0.86960    1.000
    N56      N        0.31524    0.66670    0.75950    1.000
    N57      N        0.27595    0.53950    0.73390    1.000
    N58      N        0.26555    0.67960    0.69530    1.000
    N59      N        0.16796    0.46470    0.60780    1.000
    N60      N        0.32107    0.99610    0.72800    1.000
    I31      I        0.10452    0.26237    0.59528    1.000
    I32      I        0.77525    0.73084    0.71084    1.000
    I33      I        0.88072    0.65515    0.80675    1.000
    I34      I        0.14345    0.41676    0.48909    1.000
    I35      I        0.87518    0.24269    0.45631    1.000
    I36      I        0.96757    0.15371    0.38446    1.000
    Zn16     Zn       0.83535    0.63170    0.73316    1.000
    Zn17     Zn       0.12447    0.40645    0.56138    1.000
    Zn18     Zn       0.91000    0.12888    0.41858    1.000
    C181     C        0.85700    0.71190    0.65530    1.000
    H121     H        0.83540    0.74890    0.65530    1.000
    C182     C        0.87730    0.72930    0.62560    1.000
    H122     H        0.87040    0.77820    0.60620    1.000
    C183     C        0.90800    0.67640    0.62350    1.000
    C184     C        0.93170    0.69550    0.59120    1.000
    C185     C        0.96340    0.89220    0.48710    1.000
    H123     H        0.98620    0.85910    0.48810    1.000
    C186     C        0.93660    0.86240    0.51010    1.000
    C187     C        0.95600    0.97110    0.46300    1.000
    H124     H        0.97430    0.99150    0.44770    1.000
    C188     C        0.90330    0.91270    0.50810    1.000
    H125     H        0.88460    0.89500    0.52330    1.000
    C189     C        0.97960    0.65500    0.55920    1.000
    C190     C        0.89870    0.99070    0.48240    1.000
    H126     H        0.87610    0.02520    0.48060    1.000
    C191     C        0.94390    0.77820    0.53700    1.000
    C192     C        0.01420    0.59860    0.55790    1.000
    C193     C        0.89460    0.59270    0.68300    1.000
    H127     H        0.90060    0.54400    0.70260    1.000
    C194     C        0.91720    0.60620    0.65270    1.000
    H128     H        0.93840    0.56810    0.65230    1.000
    C195     C        0.80426    0.08050    0.76200    1.000
    C196     C        0.67650    0.05210    0.60440    1.000
    H129     H        0.66190    0.08560    0.58110    1.000
    C197     C        0.68840    0.91870    0.64130    1.000
    H130     H        0.68290    0.85660    0.64390    1.000
    C198     C        0.82620    0.02750    0.79910    1.000
    C199     C        0.84340    0.89190    0.84040    1.000
    H131     H        0.83940    0.82930    0.84410    1.000
    C200     C        0.84450    0.43640    0.75320    1.000
    H132     H        0.86710    0.45820    0.77180    1.000
    C201     C        0.71730    0.95780    0.67220    1.000
    H133     H        0.73060    0.92350    0.69600    1.000
    C202     C        0.72655    0.04740    0.66790    1.000
    C203     C        0.79434    0.21390    0.72640    1.000
    C204     C        0.75741    0.09090    0.70060    1.000
    C205     C        0.80370    0.31100    0.72540    1.000
    C206     C        0.77980    0.37250    0.69840    1.000
    H134     H        0.75750    0.35210    0.67870    1.000
    C207     C        0.78930    0.46270    0.70090    1.000
    H135     H        0.77280    0.50380    0.68280    1.000
    C208     C        0.85390    0.07200    0.83060    1.000
    H136     H        0.85810    0.13480    0.82830    1.000
    C209     C        0.70520    0.09610    0.63310    1.000
    H137     H        0.71040    0.15800    0.62930    1.000
    C210     C        0.87480    0.02350    0.86450    1.000
    H138     H        0.89340    0.05450    0.88540    1.000
    C211     C        0.82120    0.93570    0.80470    1.000
    H139     H        0.80280    0.90290    0.78450    1.000
    C212     C        0.83670    0.34390    0.75290    1.000
    H140     H        0.85360    0.30400    0.77110    1.000
    C213     C        0.06380    0.50020    0.59410    1.000
    H141     H        0.07610    0.46850    0.61920    1.000
    C214     C        0.06200    0.54120    0.52410    1.000
    H142     H        0.07250    0.53780    0.49950    1.000
    C215     C        0.03020    0.59500    0.52270    1.000
    H143     H        0.01950    0.62900    0.49770    1.000
    C216     C        0.03190    0.55060    0.59570    1.000
    H144     H        0.02210    0.55310    0.62090    1.000
    N61      N        0.07862    0.49330    0.55940    1.000
    N62      N        0.96056    0.63710    0.59010    1.000
    N63      N        0.92276    0.76870    0.56670    1.000
    N64      N        0.97180    0.72220    0.52950    1.000
    N65      N        0.86480    0.64640    0.68500    1.000
    N66      N        0.92366    0.01930    0.46070    1.000
    N67      N        0.87018    0.93460    0.86960    1.000
    N68      N        0.81524    0.16670    0.75950    1.000
    N69      N        0.77595    0.03950    0.73390    1.000
    N70      N        0.76555    0.17960    0.69530    1.000
    N71      N        0.66796    0.96470    0.60780    1.000
    N72      N        0.82107    0.49610    0.72800    1.000
    I37      I        0.60452    0.23763    0.09528    1.000
    I38      I        0.27525    0.76916    0.21084    1.000
    I39      I        0.38072    0.84485    0.30675    1.000
    I40      I        0.64345    0.08324    0.98909    1.000
    I41      I        0.37518    0.25731    0.95631    1.000
    I42      I        0.46757    0.34629    0.88446    1.000
    Zn19     Zn       0.33535    0.86830    0.23316    1.000
    Zn20     Zn       0.62447    0.09355    0.06138    1.000
    Zn21     Zn       0.41000    0.37112    0.91858    1.000
    C217     C        0.35700    0.78810    0.15530    1.000
    H145     H        0.33540    0.75110    0.15530    1.000
    C218     C        0.37730    0.77070    0.12560    1.000
    H146     H        0.37040    0.72180    0.10620    1.000
    C219     C        0.40800    0.82360    0.12350    1.000
    C220     C        0.43170    0.80450    0.09120    1.000
    C221     C        0.46340    0.60780    0.98710    1.000
    H147     H        0.48620    0.64090    0.98810    1.000
    C222     C        0.43660    0.63760    0.01010    1.000
    C223     C        0.45600    0.52890    0.96300    1.000
    H148     H        0.47430    0.50850    0.94770    1.000
    C224     C        0.40330    0.58730    0.00810    1.000
    H149     H        0.38460    0.60500    0.02330    1.000
    C225     C        0.47960    0.84500    0.05920    1.000
    C226     C        0.39870    0.50930    0.98240    1.000
    H150     H        0.37610    0.47480    0.98060    1.000
    C227     C        0.44390    0.72180    0.03700    1.000
    C228     C        0.51420    0.90140    0.05790    1.000
    C229     C        0.39460    0.90730    0.18300    1.000
    H151     H        0.40060    0.95600    0.20260    1.000
    C230     C        0.41720    0.89380    0.15270    1.000
    H152     H        0.43840    0.93190    0.15230    1.000
    C231     C        0.30426    0.41950    0.26200    1.000
    C232     C        0.17650    0.44790    0.10440    1.000
    H153     H        0.16190    0.41440    0.08110    1.000
    C233     C        0.18840    0.58130    0.14130    1.000
    H154     H        0.18290    0.64340    0.14390    1.000
    C234     C        0.32620    0.47250    0.29910    1.000
    C235     C        0.34340    0.60810    0.34040    1.000
    H155     H        0.33940    0.67070    0.34410    1.000
    C236     C        0.34450    0.06360    0.25320    1.000
    H156     H        0.36710    0.04180    0.27180    1.000
    C237     C        0.21730    0.54220    0.17220    1.000
    H157     H        0.23060    0.57650    0.19600    1.000
    C238     C        0.22655    0.45260    0.16790    1.000
    C239     C        0.29434    0.28610    0.22640    1.000
    C240     C        0.25741    0.40910    0.20060    1.000
    C241     C        0.30370    0.18900    0.22540    1.000
    C242     C        0.27980    0.12750    0.19840    1.000
    H158     H        0.25750    0.14790    0.17870    1.000
    C243     C        0.28930    0.03730    0.20090    1.000
    H159     H        0.27280    0.99620    0.18280    1.000
    C244     C        0.35390    0.42800    0.33060    1.000
    H160     H        0.35810    0.36520    0.32830    1.000
    C245     C        0.20520    0.40390    0.13310    1.000
    H161     H        0.21040    0.34200    0.12930    1.000
    C246     C        0.37480    0.47650    0.36450    1.000
    H162     H        0.39340    0.44550    0.38540    1.000
    C247     C        0.32120    0.56430    0.30470    1.000
    H163     H        0.30280    0.59710    0.28450    1.000
    C248     C        0.33670    0.15610    0.25290    1.000
    H164     H        0.35360    0.19600    0.27110    1.000
    C249     C        0.56380    0.99980    0.09410    1.000
    H165     H        0.57610    0.03150    0.11920    1.000
    C250     C        0.56200    0.95880    0.02410    1.000
    H166     H        0.57250    0.96220    0.99950    1.000
    C251     C        0.53020    0.90500    0.02270    1.000
    H167     H        0.51950    0.87100    0.99770    1.000
    C252     C        0.53190    0.94940    0.09570    1.000
    H168     H        0.52210    0.94690    0.12090    1.000
    N73      N        0.57862    0.00670    0.05940    1.000
    N74      N        0.46056    0.86290    0.09010    1.000
    N75      N        0.42276    0.73130    0.06670    1.000
    N76      N        0.47180    0.77780    0.02950    1.000
    N77      N        0.36480    0.85360    0.18500    1.000
    N78      N        0.42366    0.48070    0.96070    1.000
    N79      N        0.37018    0.56540    0.36960    1.000
    N80      N        0.31524    0.33330    0.25950    1.000
    N81      N        0.27595    0.46050    0.23390    1.000
    N82      N        0.26555    0.32040    0.19530    1.000
    N83      N        0.16796    0.53530    0.10780    1.000
    N84      N        0.32107    0.00390    0.22800    1.000
    I43      I        0.10452    0.73763    0.09528    1.000
    I44      I        0.77525    0.26916    0.21084    1.000
    I45      I        0.88072    0.34485    0.30675    1.000
    I46      I        0.14345    0.58324    0.98909    1.000
    I47      I        0.87518    0.75731    0.95631    1.000
    I48      I        0.96757    0.84629    0.88446    1.000
    Zn22     Zn       0.83535    0.36830    0.23316    1.000
    Zn23     Zn       0.12447    0.59355    0.06138    1.000
    Zn24     Zn       0.91000    0.87112    0.91858    1.000
    C253     C        0.85700    0.28810    0.15530    1.000
    H169     H        0.83540    0.25110    0.15530    1.000
    C254     C        0.87730    0.27070    0.12560    1.000
    H170     H        0.87040    0.22180    0.10620    1.000
    C255     C        0.90800    0.32360    0.12350    1.000
    C256     C        0.93170    0.30450    0.09120    1.000
    C257     C        0.96340    0.10780    0.98710    1.000
    H171     H        0.98620    0.14090    0.98810    1.000
    C258     C        0.93660    0.13760    0.01010    1.000
    C259     C        0.95600    0.02890    0.96300    1.000
    H172     H        0.97430    0.00850    0.94770    1.000
    C260     C        0.90330    0.08730    0.00810    1.000
    H173     H        0.88460    0.10500    0.02330    1.000
    C261     C        0.97960    0.34500    0.05920    1.000
    C262     C        0.89870    0.00930    0.98240    1.000
    H174     H        0.87610    0.97480    0.98060    1.000
    C263     C        0.94390    0.22180    0.03700    1.000
    C264     C        0.01420    0.40140    0.05790    1.000
    C265     C        0.89460    0.40730    0.18300    1.000
    H175     H        0.90060    0.45600    0.20260    1.000
    C266     C        0.91720    0.39380    0.15270    1.000
    H176     H        0.93840    0.43190    0.15230    1.000
    C267     C        0.80426    0.91950    0.26200    1.000
    C268     C        0.67650    0.94790    0.10440    1.000
    H177     H        0.66190    0.91440    0.08110    1.000
    C269     C        0.68840    0.08130    0.14130    1.000
    H178     H        0.68290    0.14340    0.14390    1.000
    C270     C        0.82620    0.97250    0.29910    1.000
    C271     C        0.84340    0.10810    0.34040    1.000
    H179     H        0.83940    0.17070    0.34410    1.000
    C272     C        0.84450    0.56360    0.25320    1.000
    H180     H        0.86710    0.54180    0.27180    1.000
    C273     C        0.71730    0.04220    0.17220    1.000
    H181     H        0.73060    0.07650    0.19600    1.000
    C274     C        0.72655    0.95260    0.16790    1.000
    C275     C        0.79434    0.78610    0.22640    1.000
    C276     C        0.75741    0.90910    0.20060    1.000
    C277     C        0.80370    0.68900    0.22540    1.000
    C278     C        0.77980    0.62750    0.19840    1.000
    H182     H        0.75750    0.64790    0.17870    1.000
    C279     C        0.78930    0.53730    0.20090    1.000
    H183     H        0.77280    0.49620    0.18280    1.000
    C280     C        0.85390    0.92800    0.33060    1.000
    H184     H        0.85810    0.86520    0.32830    1.000
    C281     C        0.70520    0.90390    0.13310    1.000
    H185     H        0.71040    0.84200    0.12930    1.000
    C282     C        0.87480    0.97650    0.36450    1.000
    H186     H        0.89340    0.94550    0.38540    1.000
    C283     C        0.82120    0.06430    0.30470    1.000
    H187     H        0.80280    0.09710    0.28450    1.000
    C284     C        0.83670    0.65610    0.25290    1.000
    H188     H        0.85360    0.69600    0.27110    1.000
    C285     C        0.06380    0.49980    0.09410    1.000
    H189     H        0.07610    0.53150    0.11920    1.000
    C286     C        0.06200    0.45880    0.02410    1.000
    H190     H        0.07250    0.46220    0.99950    1.000
    C287     C        0.03020    0.40500    0.02270    1.000
    H191     H        0.01950    0.37100    0.99770    1.000
    C288     C        0.03190    0.44940    0.09570    1.000
    H192     H        0.02210    0.44690    0.12090    1.000
    N85      N        0.07862    0.50670    0.05940    1.000
    N86      N        0.96056    0.36290    0.09010    1.000
    N87      N        0.92276    0.23130    0.06670    1.000
    N88      N        0.97180    0.27780    0.02950    1.000
    N89      N        0.86480    0.35360    0.18500    1.000
    N90      N        0.92366    0.98070    0.96070    1.000
    N91      N        0.87018    0.06540    0.36960    1.000
    N92      N        0.81524    0.83330    0.25950    1.000
    N93      N        0.77595    0.96050    0.23390    1.000
    N94      N        0.76555    0.82040    0.19530    1.000
    N95      N        0.66796    0.03530    0.10780    1.000
    N96      N        0.82107    0.50390    0.22800    1.000
