# CIF file generated by openbabel 3.1.0, see https://openbabel.org
data_I
_chemical_name_common 'IFENOY03_clean'
_cell_length_a 26.4366
_cell_length_b 26.4366
_cell_length_c 5.3287
_cell_angle_alpha 90
_cell_angle_beta 90
_cell_angle_gamma 90
_space_group_name_H-M_alt 'P 1'
_space_group_name_Hall 'P 1'
loop_
    _symmetry_equiv_pos_as_xyz
    x,y,z
loop_
    _atom_site_label
    _atom_site_type_symbol
    _atom_site_fract_x
    _atom_site_fract_y
    _atom_site_fract_z
    _atom_site_occupancy
    Zn1      Zn       0.72623    0.71490    0.33260    1.000
    H2       H        0.83200    0.50650    0.53110    1.000
    H3       H        0.81270    0.67930    0.72660    1.000
    H4       H        0.87710    0.66970    0.05710    1.000
    H5       H        0.90010    0.50060    0.84640    1.000
    H6       H        0.94800    0.53760    0.15080    1.000
    H7       H        0.70460    0.60710    0.11560    1.000
    H8       H        0.93510    0.62130    0.26630    1.000
    H9       H        0.81160    0.48560    0.10680    1.000
    H10      H        0.78610    0.40490    0.96830    1.000
    H11      H        0.66790    0.52140    0.20940    1.000
    H12      H        0.64250    0.45300    0.99270    1.000
    C13      C        0.74157    0.51149    0.17340    1.000
    C14      C        0.82774    0.54038    0.57240    1.000
    C15      C        0.79160    0.56947    0.45430    1.000
    C16      C        0.85277    0.61560    0.81480    1.000
    C17      C        0.85786    0.56330    0.75620    1.000
    C18      C        0.81676    0.64515    0.68880    1.000
    C19      C        0.78733    0.62200    0.50580    1.000
    C20      C        0.88160    0.63600    0.01140    1.000
    C21      C        0.89510    0.53450    0.88640    1.000
    C22      C        0.92340    0.55660    0.06890    1.000
    C23      C        0.73140    0.60402    0.22770    1.000
    C24      C        0.91630    0.60720    0.13640    1.000
    C25      C        0.77740    0.47740    0.09900    1.000
    C26      C        0.71500    0.41887    0.98360    1.000
    C27      C        0.76190    0.42910    0.00900    1.000
    C28      C        0.69200    0.49920    0.14600    1.000
    C29      C        0.67630    0.45770    0.03600    1.000
    C30      C        0.69590    0.36920    0.89700    1.000
    N31      N        0.74947    0.64139    0.35640    1.000
    N32      N        0.75587    0.55987    0.27460    1.000
    O33      O        0.22398    0.24618    0.15620    1.000
    O34      O        0.72421    0.33484    0.86030    1.000
    O35      O        0.65530    0.35790    0.81800    1.000
    H36      H        0.30250    0.24247    0.82510    1.000
    Zn37     Zn       0.22623    0.21490    0.83260    1.000
    H38      H        0.33200    0.00650    0.03110    1.000
    H39      H        0.31270    0.17930    0.22660    1.000
    H40      H        0.37710    0.16970    0.55710    1.000
    H41      H        0.40010    0.00060    0.34640    1.000
    H42      H        0.44800    0.03760    0.65080    1.000
    H43      H        0.20460    0.10710    0.61560    1.000
    H44      H        0.43510    0.12130    0.76630    1.000
    H45      H        0.31160    0.98560    0.60680    1.000
    H46      H        0.28610    0.90490    0.46830    1.000
    H47      H        0.16790    0.02140    0.70940    1.000
    H48      H        0.14250    0.95300    0.49270    1.000
    C49      C        0.24157    0.01149    0.67340    1.000
    C50      C        0.32774    0.04038    0.07240    1.000
    C51      C        0.29160    0.06947    0.95430    1.000
    C52      C        0.35277    0.11560    0.31480    1.000
    C53      C        0.35786    0.06330    0.25620    1.000
    C54      C        0.31676    0.14515    0.18880    1.000
    C55      C        0.28733    0.12200    0.00580    1.000
    C56      C        0.38160    0.13600    0.51140    1.000
    C57      C        0.39510    0.03450    0.38640    1.000
    C58      C        0.42340    0.05660    0.56890    1.000
    C59      C        0.23140    0.10402    0.72770    1.000
    C60      C        0.41630    0.10720    0.63640    1.000
    C61      C        0.27740    0.97740    0.59900    1.000
    C62      C        0.21500    0.91887    0.48360    1.000
    C63      C        0.26190    0.92910    0.50900    1.000
    C64      C        0.19200    0.99920    0.64600    1.000
    C65      C        0.17630    0.95770    0.53600    1.000
    C66      C        0.19590    0.86920    0.39700    1.000
    N67      N        0.24947    0.14139    0.85640    1.000
    N68      N        0.25587    0.05987    0.77460    1.000
    O69      O        0.72398    0.74618    0.65620    1.000
    O70      O        0.22421    0.83484    0.36030    1.000
    O71      O        0.15530    0.85790    0.31800    1.000
    H72      H        0.80250    0.74247    0.32510    1.000
    Zn73     Zn       0.27377    0.28510    0.33260    1.000
    H74      H        0.16800    0.49350    0.53110    1.000
    H75      H        0.18730    0.32070    0.72660    1.000
    H76      H        0.12290    0.33030    0.05710    1.000
    H77      H        0.09990    0.49940    0.84640    1.000
    H78      H        0.05200    0.46240    0.15080    1.000
    H79      H        0.29540    0.39290    0.11560    1.000
    H80      H        0.06490    0.37870    0.26630    1.000
    H81      H        0.18840    0.51440    0.10680    1.000
    H82      H        0.21390    0.59510    0.96830    1.000
    H83      H        0.33210    0.47860    0.20940    1.000
    H84      H        0.35750    0.54700    0.99270    1.000
    C85      C        0.25843    0.48851    0.17340    1.000
    C86      C        0.17226    0.45962    0.57240    1.000
    C87      C        0.20840    0.43053    0.45430    1.000
    C88      C        0.14723    0.38440    0.81480    1.000
    C89      C        0.14214    0.43670    0.75620    1.000
    C90      C        0.18324    0.35485    0.68880    1.000
    C91      C        0.21267    0.37800    0.50580    1.000
    C92      C        0.11840    0.36400    0.01140    1.000
    C93      C        0.10490    0.46550    0.88640    1.000
    C94      C        0.07660    0.44340    0.06890    1.000
    C95      C        0.26860    0.39598    0.22770    1.000
    C96      C        0.08370    0.39280    0.13640    1.000
    C97      C        0.22260    0.52260    0.09900    1.000
    C98      C        0.28500    0.58113    0.98360    1.000
    C99      C        0.23810    0.57090    0.00900    1.000
    C100     C        0.30800    0.50080    0.14600    1.000
    C101     C        0.32370    0.54230    0.03600    1.000
    C102     C        0.30410    0.63080    0.89700    1.000
    N103     N        0.25053    0.35861    0.35640    1.000
    N104     N        0.24413    0.44013    0.27460    1.000
    O105     O        0.77602    0.75382    0.15620    1.000
    O106     O        0.27579    0.66516    0.86030    1.000
    O107     O        0.34470    0.64210    0.81800    1.000
    H108     H        0.69750    0.75753    0.82510    1.000
    Zn109    Zn       0.77377    0.78510    0.83260    1.000
    H110     H        0.66800    0.99350    0.03110    1.000
    H111     H        0.68730    0.82070    0.22660    1.000
    H112     H        0.62290    0.83030    0.55710    1.000
    H113     H        0.59990    0.99940    0.34640    1.000
    H114     H        0.55200    0.96240    0.65080    1.000
    H115     H        0.79540    0.89290    0.61560    1.000
    H116     H        0.56490    0.87870    0.76630    1.000
    H117     H        0.68840    0.01440    0.60680    1.000
    H118     H        0.71390    0.09510    0.46830    1.000
    H119     H        0.83210    0.97860    0.70940    1.000
    H120     H        0.85750    0.04700    0.49270    1.000
    C121     C        0.75843    0.98851    0.67340    1.000
    C122     C        0.67226    0.95962    0.07240    1.000
    C123     C        0.70840    0.93053    0.95430    1.000
    C124     C        0.64723    0.88440    0.31480    1.000
    C125     C        0.64214    0.93670    0.25620    1.000
    C126     C        0.68324    0.85485    0.18880    1.000
    C127     C        0.71267    0.87800    0.00580    1.000
    C128     C        0.61840    0.86400    0.51140    1.000
    C129     C        0.60490    0.96550    0.38640    1.000
    C130     C        0.57660    0.94340    0.56890    1.000
    C131     C        0.76860    0.89598    0.72770    1.000
    C132     C        0.58370    0.89280    0.63640    1.000
    C133     C        0.72260    0.02260    0.59900    1.000
    C134     C        0.78500    0.08113    0.48360    1.000
    C135     C        0.73810    0.07090    0.50900    1.000
    C136     C        0.80800    0.00080    0.64600    1.000
    C137     C        0.82370    0.04230    0.53600    1.000
    C138     C        0.80410    0.13080    0.39700    1.000
    N139     N        0.75053    0.85861    0.85640    1.000
    N140     N        0.74413    0.94013    0.77460    1.000
    O141     O        0.27602    0.25382    0.65620    1.000
    O142     O        0.77579    0.16516    0.36030    1.000
    O143     O        0.84470    0.14210    0.31800    1.000
    H144     H        0.19750    0.25753    0.32510    1.000
    Zn145    Zn       0.71490    0.27377    0.66740    1.000
    H146     H        0.50650    0.16800    0.46890    1.000
    H147     H        0.67930    0.18730    0.27340    1.000
    H148     H        0.66970    0.12290    0.94290    1.000
    H149     H        0.50060    0.09990    0.15360    1.000
    H150     H        0.53760    0.05200    0.84920    1.000
    H151     H        0.60710    0.29540    0.88440    1.000
    H152     H        0.62130    0.06490    0.73370    1.000
    H153     H        0.48560    0.18840    0.89320    1.000
    H154     H        0.40490    0.21390    0.03170    1.000
    H155     H        0.52140    0.33210    0.79060    1.000
    H156     H        0.45300    0.35750    0.00730    1.000
    C157     C        0.51149    0.25843    0.82660    1.000
    C158     C        0.54038    0.17226    0.42760    1.000
    C159     C        0.56947    0.20840    0.54570    1.000
    C160     C        0.61560    0.14723    0.18520    1.000
    C161     C        0.56330    0.14214    0.24380    1.000
    C162     C        0.64515    0.18324    0.31120    1.000
    C163     C        0.62200    0.21267    0.49420    1.000
    C164     C        0.63600    0.11840    0.98860    1.000
    C165     C        0.53450    0.10490    0.11360    1.000
    C166     C        0.55660    0.07660    0.93110    1.000
    C167     C        0.60402    0.26860    0.77230    1.000
    C168     C        0.60720    0.08370    0.86360    1.000
    C169     C        0.47740    0.22260    0.90100    1.000
    C170     C        0.41887    0.28500    0.01640    1.000
    C171     C        0.42910    0.23810    0.99100    1.000
    C172     C        0.49920    0.30800    0.85400    1.000
    C173     C        0.45770    0.32370    0.96400    1.000
    C174     C        0.36920    0.30410    0.10300    1.000
    N175     N        0.64139    0.25053    0.64360    1.000
    N176     N        0.55987    0.24413    0.72540    1.000
    O177     O        0.24618    0.77602    0.84380    1.000
    O178     O        0.33484    0.27579    0.13970    1.000
    O179     O        0.35790    0.34470    0.18200    1.000
    H180     H        0.24247    0.69750    0.17490    1.000
    Zn181    Zn       0.21490    0.77377    0.16740    1.000
    H182     H        0.00650    0.66800    0.96890    1.000
    H183     H        0.17930    0.68730    0.77340    1.000
    H184     H        0.16970    0.62290    0.44290    1.000
    H185     H        0.00060    0.59990    0.65360    1.000
    H186     H        0.03760    0.55200    0.34920    1.000
    H187     H        0.10710    0.79540    0.38440    1.000
    H188     H        0.12130    0.56490    0.23370    1.000
    H189     H        0.98560    0.68840    0.39320    1.000
    H190     H        0.90490    0.71390    0.53170    1.000
    H191     H        0.02140    0.83210    0.29060    1.000
    H192     H        0.95300    0.85750    0.50730    1.000
    C193     C        0.01149    0.75843    0.32660    1.000
    C194     C        0.04038    0.67226    0.92760    1.000
    C195     C        0.06947    0.70840    0.04570    1.000
    C196     C        0.11560    0.64723    0.68520    1.000
    C197     C        0.06330    0.64214    0.74380    1.000
    C198     C        0.14515    0.68324    0.81120    1.000
    C199     C        0.12200    0.71267    0.99420    1.000
    C200     C        0.13600    0.61840    0.48860    1.000
    C201     C        0.03450    0.60490    0.61360    1.000
    C202     C        0.05660    0.57660    0.43110    1.000
    C203     C        0.10402    0.76860    0.27230    1.000
    C204     C        0.10720    0.58370    0.36360    1.000
    C205     C        0.97740    0.72260    0.40100    1.000
    C206     C        0.91887    0.78500    0.51640    1.000
    C207     C        0.92910    0.73810    0.49100    1.000
    C208     C        0.99920    0.80800    0.35400    1.000
    C209     C        0.95770    0.82370    0.46400    1.000
    C210     C        0.86920    0.80410    0.60300    1.000
    N211     N        0.14139    0.75053    0.14360    1.000
    N212     N        0.05987    0.74413    0.22540    1.000
    O213     O        0.74618    0.27602    0.34380    1.000
    O214     O        0.83484    0.77579    0.63970    1.000
    O215     O        0.85790    0.84470    0.68200    1.000
    H216     H        0.74247    0.19750    0.67490    1.000
    Zn217    Zn       0.28510    0.72623    0.66740    1.000
    H218     H        0.49350    0.83200    0.46890    1.000
    H219     H        0.32070    0.81270    0.27340    1.000
    H220     H        0.33030    0.87710    0.94290    1.000
    H221     H        0.49940    0.90010    0.15360    1.000
    H222     H        0.46240    0.94800    0.84920    1.000
    H223     H        0.39290    0.70460    0.88440    1.000
    H224     H        0.37870    0.93510    0.73370    1.000
    H225     H        0.51440    0.81160    0.89320    1.000
    H226     H        0.59510    0.78610    0.03170    1.000
    H227     H        0.47860    0.66790    0.79060    1.000
    H228     H        0.54700    0.64250    0.00730    1.000
    C229     C        0.48851    0.74157    0.82660    1.000
    C230     C        0.45962    0.82774    0.42760    1.000
    C231     C        0.43053    0.79160    0.54570    1.000
    C232     C        0.38440    0.85277    0.18520    1.000
    C233     C        0.43670    0.85786    0.24380    1.000
    C234     C        0.35485    0.81676    0.31120    1.000
    C235     C        0.37800    0.78733    0.49420    1.000
    C236     C        0.36400    0.88160    0.98860    1.000
    C237     C        0.46550    0.89510    0.11360    1.000
    C238     C        0.44340    0.92340    0.93110    1.000
    C239     C        0.39598    0.73140    0.77230    1.000
    C240     C        0.39280    0.91630    0.86360    1.000
    C241     C        0.52260    0.77740    0.90100    1.000
    C242     C        0.58113    0.71500    0.01640    1.000
    C243     C        0.57090    0.76190    0.99100    1.000
    C244     C        0.50080    0.69200    0.85400    1.000
    C245     C        0.54230    0.67630    0.96400    1.000
    C246     C        0.63080    0.69590    0.10300    1.000
    N247     N        0.35861    0.74947    0.64360    1.000
    N248     N        0.44013    0.75587    0.72540    1.000
    O249     O        0.75382    0.22398    0.84380    1.000
    O250     O        0.66516    0.72421    0.13970    1.000
    O251     O        0.64210    0.65530    0.18200    1.000
    H252     H        0.75753    0.30250    0.17490    1.000
    Zn253    Zn       0.78510    0.22623    0.16740    1.000
    H254     H        0.99350    0.33200    0.96890    1.000
    H255     H        0.82070    0.31270    0.77340    1.000
    H256     H        0.83030    0.37710    0.44290    1.000
    H257     H        0.99940    0.40010    0.65360    1.000
    H258     H        0.96240    0.44800    0.34920    1.000
    H259     H        0.89290    0.20460    0.38440    1.000
    H260     H        0.87870    0.43510    0.23370    1.000
    H261     H        0.01440    0.31160    0.39320    1.000
    H262     H        0.09510    0.28610    0.53170    1.000
    H263     H        0.97860    0.16790    0.29060    1.000
    H264     H        0.04700    0.14250    0.50730    1.000
    C265     C        0.98851    0.24157    0.32660    1.000
    C266     C        0.95962    0.32774    0.92760    1.000
    C267     C        0.93053    0.29160    0.04570    1.000
    C268     C        0.88440    0.35277    0.68520    1.000
    C269     C        0.93670    0.35786    0.74380    1.000
    C270     C        0.85485    0.31676    0.81120    1.000
    C271     C        0.87800    0.28733    0.99420    1.000
    C272     C        0.86400    0.38160    0.48860    1.000
    C273     C        0.96550    0.39510    0.61360    1.000
    C274     C        0.94340    0.42340    0.43110    1.000
    C275     C        0.89598    0.23140    0.27230    1.000
    C276     C        0.89280    0.41630    0.36360    1.000
    C277     C        0.02260    0.27740    0.40100    1.000
    C278     C        0.08113    0.21500    0.51640    1.000
    C279     C        0.07090    0.26190    0.49100    1.000
    C280     C        0.00080    0.19200    0.35400    1.000
    C281     C        0.04230    0.17630    0.46400    1.000
    C282     C        0.13080    0.19590    0.60300    1.000
    N283     N        0.85861    0.24947    0.14360    1.000
    N284     N        0.94013    0.25587    0.22540    1.000
    O285     O        0.25382    0.72398    0.34380    1.000
    O286     O        0.16516    0.22421    0.63970    1.000
    O287     O        0.14210    0.15530    0.68200    1.000
    H288     H        0.25753    0.80250    0.67490    1.000
