# CIF file generated by openbabel 3.1.0, see https://openbabel.org
data_I
_chemical_name_common 'SENWEP_clean'
_cell_length_a 14.1069
_cell_length_b 14.1069
_cell_length_c 14.1069
_cell_angle_alpha 90
_cell_angle_beta 90
_cell_angle_gamma 90
_space_group_name_H-M_alt 'P 1'
_space_group_name_Hall 'P 1'
loop_
    _symmetry_equiv_pos_as_xyz
    x,y,z
loop_
    _atom_site_label
    _atom_site_type_symbol
    _atom_site_fract_x
    _atom_site_fract_y
    _atom_site_fract_z
    _atom_site_occupancy
    Zn1      Zn       0.97992    0.97992    0.97992    1.000
    Zn2      Zn       0.83178    0.83178    0.83178    1.000
    Zn3      Zn       0.52008    0.02008    0.47992    1.000
    Zn4      Zn       0.66822    0.16822    0.33178    1.000
    Zn5      Zn       0.02008    0.47992    0.52008    1.000
    Zn6      Zn       0.16822    0.33178    0.66822    1.000
    Zn7      Zn       0.47992    0.52008    0.02008    1.000
    Zn8      Zn       0.33178    0.66822    0.16822    1.000
    H1       H        0.96090    0.20010    0.76670    1.000
    H2       H        0.53910    0.79990    0.26670    1.000
    H3       H        0.03910    0.70010    0.73330    1.000
    H4       H        0.46090    0.29990    0.23330    1.000
    H5       H        0.76670    0.96090    0.20010    1.000
    H6       H        0.26670    0.53910    0.79990    1.000
    H7       H        0.73330    0.03910    0.70010    1.000
    H8       H        0.23330    0.46090    0.29990    1.000
    H9       H        0.20010    0.76670    0.96090    1.000
    H10      H        0.79990    0.26670    0.53910    1.000
    H11      H        0.70010    0.73330    0.03910    1.000
    H12      H        0.29990    0.23330    0.46090    1.000
    C1       C        0.85130    0.11030    0.74540    1.000
    C2       C        0.90840    0.18680    0.72660    1.000
    C3       C        0.87190    0.04500    0.82710    1.000
    C4       C        0.64870    0.88970    0.24540    1.000
    C5       C        0.59160    0.81320    0.22660    1.000
    C6       C        0.62810    0.95500    0.32710    1.000
    C7       C        0.14870    0.61030    0.75460    1.000
    C8       C        0.09160    0.68680    0.77340    1.000
    C9       C        0.12810    0.54500    0.67290    1.000
    C10      C        0.35130    0.38970    0.25460    1.000
    C11      C        0.40840    0.31320    0.27340    1.000
    C12      C        0.37190    0.45500    0.17290    1.000
    C13      C        0.74540    0.85130    0.11030    1.000
    C14      C        0.72660    0.90840    0.18680    1.000
    C15      C        0.82710    0.87190    0.04500    1.000
    C16      C        0.24540    0.64870    0.88970    1.000
    C17      C        0.22660    0.59160    0.81320    1.000
    C18      C        0.32710    0.62810    0.95500    1.000
    C19      C        0.75460    0.14870    0.61030    1.000
    C20      C        0.77340    0.09160    0.68680    1.000
    C21      C        0.67290    0.12810    0.54500    1.000
    C22      C        0.25460    0.35130    0.38970    1.000
    C23      C        0.27340    0.40840    0.31320    1.000
    C24      C        0.17290    0.37190    0.45500    1.000
    C25      C        0.11030    0.74540    0.85130    1.000
    C26      C        0.18680    0.72660    0.90840    1.000
    C27      C        0.04500    0.82710    0.87190    1.000
    C28      C        0.88970    0.24540    0.64870    1.000
    C29      C        0.81320    0.22660    0.59160    1.000
    C30      C        0.95500    0.32710    0.62810    1.000
    C31      C        0.61030    0.75460    0.14870    1.000
    C32      C        0.68680    0.77340    0.09160    1.000
    C33      C        0.54500    0.67290    0.12810    1.000
    C34      C        0.38970    0.25460    0.35130    1.000
    C35      C        0.31320    0.27340    0.40840    1.000
    C36      C        0.45500    0.17290    0.37190    1.000
    N1       N        0.09000    0.02900    0.13870    1.000
    N2       N        0.41000    0.97100    0.63870    1.000
    N3       N        0.91000    0.52900    0.36130    1.000
    N4       N        0.59000    0.47100    0.86130    1.000
    N5       N        0.13870    0.09000    0.02900    1.000
    N6       N        0.63870    0.41000    0.97100    1.000
    N7       N        0.36130    0.91000    0.52900    1.000
    N8       N        0.86130    0.59000    0.47100    1.000
    N9       N        0.02900    0.13870    0.09000    1.000
    N10      N        0.97100    0.63870    0.41000    1.000
    N11      N        0.52900    0.36130    0.91000    1.000
    N12      N        0.47100    0.86130    0.59000    1.000
    O1       O        0.94510    0.06340    0.87530    1.000
    O2       O        0.81750    0.97760    0.84270    1.000
    O3       O        0.07600    0.04900    0.05790    1.000
    O4       O        0.12000    0.07700    0.20200    1.000
    O5       O        0.06900    0.94000    0.15900    1.000
    O6       O        0.55490    0.93660    0.37530    1.000
    O7       O        0.68250    0.02240    0.34270    1.000
    O8       O        0.42400    0.95100    0.55790    1.000
    O9       O        0.38000    0.92300    0.70200    1.000
    O10      O        0.43100    0.06000    0.65900    1.000
    O11      O        0.05490    0.56340    0.62470    1.000
    O12      O        0.18250    0.47760    0.65730    1.000
    O13      O        0.92400    0.54900    0.44210    1.000
    O14      O        0.88000    0.57700    0.29800    1.000
    O15      O        0.93100    0.44000    0.34100    1.000
    O16      O        0.44510    0.43660    0.12470    1.000
    O17      O        0.31750    0.52240    0.15730    1.000
    O18      O        0.57600    0.45100    0.94210    1.000
    O19      O        0.62000    0.42300    0.79800    1.000
    O20      O        0.56900    0.56000    0.84100    1.000
    O21      O        0.87530    0.94510    0.06340    1.000
    O22      O        0.84270    0.81750    0.97760    1.000
    O23      O        0.05790    0.07600    0.04900    1.000
    O24      O        0.20200    0.12000    0.07700    1.000
    O25      O        0.15900    0.06900    0.94000    1.000
    O26      O        0.37530    0.55490    0.93660    1.000
    O27      O        0.34270    0.68250    0.02240    1.000
    O28      O        0.55790    0.42400    0.95100    1.000
    O29      O        0.70200    0.38000    0.92300    1.000
    O30      O        0.65900    0.43100    0.06000    1.000
    O31      O        0.62470    0.05490    0.56340    1.000
    O32      O        0.65730    0.18250    0.47760    1.000
    O33      O        0.44210    0.92400    0.54900    1.000
    O34      O        0.29800    0.88000    0.57700    1.000
    O35      O        0.34100    0.93100    0.44000    1.000
    O36      O        0.12470    0.44510    0.43660    1.000
    O37      O        0.15730    0.31750    0.52240    1.000
    O38      O        0.94210    0.57600    0.45100    1.000
    O39      O        0.79800    0.62000    0.42300    1.000
    O40      O        0.84100    0.56900    0.56000    1.000
    O41      O        0.06340    0.87530    0.94510    1.000
    O42      O        0.97760    0.84270    0.81750    1.000
    O43      O        0.04900    0.05790    0.07600    1.000
    O44      O        0.07700    0.20200    0.12000    1.000
    O45      O        0.94000    0.15900    0.06900    1.000
    O46      O        0.93660    0.37530    0.55490    1.000
    O47      O        0.02240    0.34270    0.68250    1.000
    O48      O        0.95100    0.55790    0.42400    1.000
    O49      O        0.92300    0.70200    0.38000    1.000
    O50      O        0.06000    0.65900    0.43100    1.000
    O51      O        0.56340    0.62470    0.05490    1.000
    O52      O        0.47760    0.65730    0.18250    1.000
    O53      O        0.54900    0.44210    0.92400    1.000
    O54      O        0.57700    0.29800    0.88000    1.000
    O55      O        0.44000    0.34100    0.93100    1.000
    O56      O        0.43660    0.12470    0.44510    1.000
    O57      O        0.52240    0.15730    0.31750    1.000
    O58      O        0.45100    0.94210    0.57600    1.000
    O59      O        0.42300    0.79800    0.62000    1.000
    O60      O        0.56000    0.84100    0.56900    1.000
