# CIF file generated by openbabel 3.1.0, see https://openbabel.org
data_I
_chemical_name_common 'image0'
_cell_length_a 33.237
_cell_length_b 9.719
_cell_length_c 18.423
_cell_angle_alpha 90
_cell_angle_beta 90.538
_cell_angle_gamma 90
_space_group_name_H-M_alt 'P 1'
_space_group_name_Hall 'P 1'
loop_
    _symmetry_equiv_pos_as_xyz
    x,y,z
loop_
    _atom_site_label
    _atom_site_type_symbol
    _atom_site_fract_x
    _atom_site_fract_y
    _atom_site_fract_z
    _atom_site_occupancy
    Zn1      Zn       0.36268    0.70620    0.27978    1.000
    Zn2      Zn       0.55534    0.79376    0.29322    1.000
    Zn3      Zn       0.45896    0.75060    0.28967    1.000
    O1       O        0.55580    0.70410    0.19840    1.000
    O2       O        0.36480    0.81060    0.37660    1.000
    O3       O        0.54970    0.33630    0.87420    1.000
    O4       O        0.36930    0.17200    0.69720    1.000
    O5       O        0.48220    0.32550    0.88090    1.000
    O6       O        0.43640    0.18330    0.68910    1.000
    O7       O        0.42440    0.87950    0.34960    1.000
    O8       O        0.11270    0.33550    0.30270    1.000
    O9       O        0.49260    0.62120    0.22460    1.000
    O10      O        0.30750    0.65890    0.25670    1.000
    C1       C        0.39590    0.87040    0.39110    1.000
    C2       C        0.52240    0.64240    0.18400    1.000
    C3       C        0.51810    0.43280    0.97830    1.000
    C4       C        0.40150    0.07200    0.59910    1.000
    C5       C        0.25050    0.53320    0.29100    1.000
    C6       C        0.16940    0.47200    0.27600    1.000
    C7       C        0.39900    0.93320    0.46530    1.000
    C8       C        0.40190    0.14700    0.66610    1.000
    C9       C        0.52220    0.56220    0.11300    1.000
    C10      C        0.29320    0.56220    0.30060    1.000
    C11      C        0.51540    0.36010    0.90450    1.000
    C12      C        0.12390    0.42700    0.27600    1.000
    O11      O        0.31540    0.48550    0.33630    1.000
    C13      C        0.48580    0.49300    0.08860    1.000
    C14      C        0.43220    0.99200    0.48290    1.000
    C15      C        0.55150    0.49830    0.99680    1.000
    C16      C        0.36530    0.01000    0.57270    1.000
    C17      C        0.48470    0.44400    0.01910    1.000
    O12      O        0.10280    0.48640    0.22600    1.000
    C18      C        0.36730    0.94700    0.50710    1.000
    C19      C        0.43570    0.06710    0.55230    1.000
    C20      C        0.55660    0.56900    0.06680    1.000
    C21      C        0.23640    0.39900    0.31200    1.000
    C22      C        0.18290    0.59300    0.25890    1.000
    C23      C        0.19300    0.36600    0.31000    1.000
    C24      C        0.22070    0.62400    0.27080    1.000
    Zn4      Zn       0.86268    0.20620    0.27978    1.000
    Zn5      Zn       0.05534    0.29376    0.29322    1.000
    Zn6      Zn       0.95896    0.25060    0.28967    1.000
    O13      O        0.05580    0.20410    0.19840    1.000
    O14      O        0.86480    0.31060    0.37660    1.000
    O15      O        0.04970    0.83630    0.87420    1.000
    O16      O        0.86930    0.67200    0.69720    1.000
    O17      O        0.98220    0.82550    0.88090    1.000
    O18      O        0.93640    0.68330    0.68910    1.000
    O19      O        0.92440    0.37950    0.34960    1.000
    O20      O        0.61270    0.83550    0.30270    1.000
    O21      O        0.99260    0.12120    0.22460    1.000
    O22      O        0.80750    0.15890    0.25670    1.000
    C25      C        0.89590    0.37040    0.39110    1.000
    C26      C        0.02240    0.14240    0.18400    1.000
    C27      C        0.01810    0.93280    0.97830    1.000
    C28      C        0.90150    0.57200    0.59910    1.000
    C29      C        0.75050    0.03320    0.29100    1.000
    C30      C        0.66940    0.97200    0.27600    1.000
    C31      C        0.89900    0.43320    0.46530    1.000
    C32      C        0.90190    0.64700    0.66610    1.000
    C33      C        0.02220    0.06220    0.11300    1.000
    C34      C        0.79320    0.06220    0.30060    1.000
    C35      C        0.01540    0.86010    0.90450    1.000
    C36      C        0.62390    0.92700    0.27600    1.000
    O23      O        0.81540    0.98550    0.33630    1.000
    C37      C        0.98580    0.99300    0.08860    1.000
    C38      C        0.93220    0.49200    0.48290    1.000
    C39      C        0.05150    0.99830    0.99680    1.000
    C40      C        0.86530    0.51000    0.57270    1.000
    C41      C        0.98470    0.94400    0.01910    1.000
    O24      O        0.60280    0.98640    0.22600    1.000
    C42      C        0.86730    0.44700    0.50710    1.000
    C43      C        0.93570    0.56710    0.55230    1.000
    C44      C        0.05660    0.06900    0.06680    1.000
    C45      C        0.73640    0.89900    0.31200    1.000
    C46      C        0.68290    0.09300    0.25890    1.000
    C47      C        0.69300    0.86600    0.31000    1.000
    C48      C        0.72070    0.12400    0.27080    1.000
    Zn7      Zn       0.36268    0.29380    0.77978    1.000
    Zn8      Zn       0.55534    0.20624    0.79322    1.000
    Zn9      Zn       0.45896    0.24940    0.78967    1.000
    O25      O        0.55580    0.29590    0.69840    1.000
    O26      O        0.36480    0.18940    0.87660    1.000
    O27      O        0.54970    0.66370    0.37420    1.000
    O28      O        0.36930    0.82800    0.19720    1.000
    O29      O        0.48220    0.67450    0.38090    1.000
    O30      O        0.43640    0.81670    0.18910    1.000
    O31      O        0.42440    0.12050    0.84960    1.000
    O32      O        0.11270    0.66450    0.80270    1.000
    O33      O        0.49260    0.37880    0.72460    1.000
    O34      O        0.30750    0.34110    0.75670    1.000
    C49      C        0.39590    0.12960    0.89110    1.000
    C50      C        0.52240    0.35760    0.68400    1.000
    C51      C        0.51810    0.56720    0.47830    1.000
    C52      C        0.40150    0.92800    0.09910    1.000
    C53      C        0.25050    0.46680    0.79100    1.000
    C54      C        0.16940    0.52800    0.77600    1.000
    C55      C        0.39900    0.06680    0.96530    1.000
    C56      C        0.40190    0.85300    0.16610    1.000
    C57      C        0.52220    0.43780    0.61300    1.000
    C58      C        0.29320    0.43780    0.80060    1.000
    C59      C        0.51540    0.63990    0.40450    1.000
    C60      C        0.12390    0.57300    0.77600    1.000
    O35      O        0.31540    0.51450    0.83630    1.000
    C61      C        0.48580    0.50700    0.58860    1.000
    C62      C        0.43220    0.00800    0.98290    1.000
    C63      C        0.55150    0.50170    0.49680    1.000
    C64      C        0.36530    0.99000    0.07270    1.000
    C65      C        0.48470    0.55600    0.51910    1.000
    O36      O        0.10280    0.51360    0.72600    1.000
    C66      C        0.36730    0.05300    0.00710    1.000
    C67      C        0.43570    0.93290    0.05230    1.000
    C68      C        0.55660    0.43100    0.56680    1.000
    C69      C        0.23640    0.60100    0.81200    1.000
    C70      C        0.18290    0.40700    0.75890    1.000
    C71      C        0.19300    0.63400    0.81000    1.000
    C72      C        0.22070    0.37600    0.77080    1.000
    Zn10     Zn       0.86268    0.79380    0.77978    1.000
    Zn11     Zn       0.05534    0.70624    0.79322    1.000
    Zn12     Zn       0.95896    0.74940    0.78967    1.000
    O37      O        0.05580    0.79590    0.69840    1.000
    O38      O        0.86480    0.68940    0.87660    1.000
    O39      O        0.04970    0.16370    0.37420    1.000
    O40      O        0.86930    0.32800    0.19720    1.000
    O41      O        0.98220    0.17450    0.38090    1.000
    O42      O        0.93640    0.31670    0.18910    1.000
    O43      O        0.92440    0.62050    0.84960    1.000
    O44      O        0.61270    0.16450    0.80270    1.000
    O45      O        0.99260    0.87880    0.72460    1.000
    O46      O        0.80750    0.84110    0.75670    1.000
    C73      C        0.89590    0.62960    0.89110    1.000
    C74      C        0.02240    0.85760    0.68400    1.000
    C75      C        0.01810    0.06720    0.47830    1.000
    C76      C        0.90150    0.42800    0.09910    1.000
    C77      C        0.75050    0.96680    0.79100    1.000
    C78      C        0.66940    0.02800    0.77600    1.000
    C79      C        0.89900    0.56680    0.96530    1.000
    C80      C        0.90190    0.35300    0.16610    1.000
    C81      C        0.02220    0.93780    0.61300    1.000
    C82      C        0.79320    0.93780    0.80060    1.000
    C83      C        0.01540    0.13990    0.40450    1.000
    C84      C        0.62390    0.07300    0.77600    1.000
    O47      O        0.81540    0.01450    0.83630    1.000
    C85      C        0.98580    0.00700    0.58860    1.000
    C86      C        0.93220    0.50800    0.98290    1.000
    C87      C        0.05150    0.00170    0.49680    1.000
    C88      C        0.86530    0.49000    0.07270    1.000
    C89      C        0.98470    0.05600    0.51910    1.000
    O48      O        0.60280    0.01360    0.72600    1.000
    C90      C        0.86730    0.55300    0.00710    1.000
    C91      C        0.93570    0.43290    0.05230    1.000
    C92      C        0.05660    0.93100    0.56680    1.000
    C93      C        0.73640    0.10100    0.81200    1.000
    C94      C        0.68290    0.90700    0.75890    1.000
    C95      C        0.69300    0.13400    0.81000    1.000
    C96      C        0.72070    0.87600    0.77080    1.000
