# CIF file generated by openbabel 3.1.0, see https://openbabel.org
data_I
_chemical_name_common 'KEXFAU_clean'
_cell_length_a 9.087
_cell_length_b 14.9997
_cell_length_c 17.239
_cell_angle_alpha 105.306
_cell_angle_beta 90
_cell_angle_gamma 107.632
_space_group_name_H-M_alt 'P 1'
_space_group_name_Hall 'P 1'
loop_
    _symmetry_equiv_pos_as_xyz
    x,y,z
loop_
    _atom_site_label
    _atom_site_type_symbol
    _atom_site_fract_x
    _atom_site_fract_y
    _atom_site_fract_z
    _atom_site_occupancy
    Cd1      Cd       0.00000    0.00000    0.00000    1.000
    Cd2      Cd       0.00000    0.00000    0.50000    1.000
    Ni1      Ni       0.34254    0.00000    0.75000    1.000
    Ni2      Ni       0.65746    0.00000    0.25000    1.000
    H1       H        0.04400    0.84800    0.04900    1.000
    H2       H        0.17900    0.91600    0.06500    1.000
    H3       H        0.23800    0.86000    0.94100    1.000
    H4       H        0.21500    0.78800    0.99400    1.000
    H5       H        0.99000    0.77400    0.87600    1.000
    H6       H        0.96500    0.71600    0.94000    1.000
    H7       H        0.15700    0.69400    0.81800    1.000
    H8       H        0.15200    0.64200    0.88000    1.000
    H9       H        0.89700    0.55800    0.83000    1.000
    H10      H        0.91200    0.61200    0.76300    1.000
    H11      H        0.08900    0.53000    0.70900    1.000
    H12      H        0.05900    0.47800    0.77100    1.000
    H13      H        0.83400    0.44800    0.65600    1.000
    H14      H        0.80600    0.39800    0.72400    1.000
    H15      H        0.97900    0.31000    0.66900    1.000
    H16      H        0.01100    0.36400    0.61000    1.000
    H17      H        0.72100    0.23600    0.60700    1.000
    H18      H        0.76200    0.30000    0.53900    1.000
    H19      H        0.76600    0.14000    0.48000    1.000
    H20      H        0.93600    0.20800    0.48900    1.000
    H21      H        0.94600    0.15000    0.60600    1.000
    H22      H        0.79800    0.08800    0.58000    1.000
    H23      H        0.19600    0.15200    0.45100    1.000
    H24      H        0.26300    0.08400    0.43500    1.000
    H25      H        0.37800    0.14000    0.55900    1.000
    H26      H        0.42700    0.21200    0.50600    1.000
    H27      H        0.21600    0.22600    0.62400    1.000
    H28      H        0.24900    0.28400    0.56000    1.000
    H29      H        0.46300    0.30600    0.68200    1.000
    H30      H        0.51000    0.35800    0.62000    1.000
    H31      H        0.33900    0.44200    0.67000    1.000
    H32      H        0.30000    0.38800    0.73700    1.000
    H33      H        0.55900    0.47000    0.79100    1.000
    H34      H        0.58100    0.52200    0.72900    1.000
    H35      H        0.38600    0.55200    0.84400    1.000
    H36      H        0.40800    0.60200    0.77600    1.000
    H37      H        0.66900    0.69000    0.83100    1.000
    H38      H        0.64700    0.63600    0.89000    1.000
    H39      H        0.48500    0.76400    0.89300    1.000
    H40      H        0.46200    0.70000    0.96100    1.000
    H41      H        0.62600    0.86000    0.02000    1.000
    H42      H        0.72800    0.79200    0.01100    1.000
    H43      H        0.79600    0.85000    0.89400    1.000
    H44      H        0.71000    0.91200    0.92000    1.000
    H45      H        0.95600    0.15200    0.95100    1.000
    H46      H        0.82100    0.08400    0.93500    1.000
    H47      H        0.76200    0.14000    0.05900    1.000
    H48      H        0.78500    0.21200    0.00600    1.000
    H49      H        0.01000    0.22600    0.12400    1.000
    H50      H        0.03500    0.28400    0.06000    1.000
    H51      H        0.84300    0.30600    0.18200    1.000
    H52      H        0.84800    0.35800    0.12000    1.000
    H53      H        0.10300    0.44200    0.17000    1.000
    H54      H        0.08800    0.38800    0.23700    1.000
    H55      H        0.91100    0.47000    0.29100    1.000
    H56      H        0.94100    0.52200    0.22900    1.000
    H57      H        0.16600    0.55200    0.34400    1.000
    H58      H        0.19400    0.60200    0.27600    1.000
    H59      H        0.02100    0.69000    0.33100    1.000
    H60      H        0.98900    0.63600    0.39000    1.000
    H61      H        0.27900    0.76400    0.39300    1.000
    H62      H        0.23800    0.70000    0.46100    1.000
    H63      H        0.23400    0.86000    0.52000    1.000
    H64      H        0.06400    0.79200    0.51100    1.000
    H65      H        0.05400    0.85000    0.39400    1.000
    H66      H        0.20200    0.91200    0.42000    1.000
    H67      H        0.80400    0.84800    0.54900    1.000
    H68      H        0.73700    0.91600    0.56500    1.000
    H69      H        0.62200    0.86000    0.44100    1.000
    H70      H        0.57300    0.78800    0.49400    1.000
    H71      H        0.78400    0.77400    0.37600    1.000
    H72      H        0.75100    0.71600    0.44000    1.000
    H73      H        0.53700    0.69400    0.31800    1.000
    H74      H        0.49000    0.64200    0.38000    1.000
    H75      H        0.66100    0.55800    0.33000    1.000
    H76      H        0.70000    0.61200    0.26300    1.000
    H77      H        0.44100    0.53000    0.20900    1.000
    H78      H        0.41900    0.47800    0.27100    1.000
    H79      H        0.61400    0.44800    0.15600    1.000
    H80      H        0.59200    0.39800    0.22400    1.000
    H81      H        0.33100    0.31000    0.16900    1.000
    H82      H        0.35300    0.36400    0.11000    1.000
    H83      H        0.51500    0.23600    0.10700    1.000
    H84      H        0.53800    0.30000    0.03900    1.000
    H85      H        0.37400    0.14000    0.98000    1.000
    H86      H        0.27200    0.20800    0.98900    1.000
    H87      H        0.20400    0.15000    0.10600    1.000
    H88      H        0.29000    0.08800    0.08000    1.000
    C1       C        0.16710    0.81980    0.96720    1.000
    C2       C        0.03920    0.74280    0.90860    1.000
    C3       C        0.09340    0.66520    0.85160    1.000
    C4       C        0.96260    0.58320    0.79800    1.000
    C5       C        0.01400    0.50380    0.74220    1.000
    C6       C        0.88110    0.42320    0.68880    1.000
    C7       C        0.92950    0.34100    0.63430    1.000
    C8       C        0.79990    0.26500    0.57520    1.000
    C9       C        0.84850    0.18260    0.52130    1.000
    C10      C        0.19570    0.99320    0.82550    1.000
    C11      C        0.48500    0.99320    0.82360    1.000
    C12      C        0.34730    0.18020    0.53280    1.000
    C13      C        0.29640    0.25720    0.59140    1.000
    C14      C        0.42820    0.33480    0.64840    1.000
    C15      C        0.37940    0.41680    0.70200    1.000
    C16      C        0.51020    0.49620    0.75780    1.000
    C17      C        0.45790    0.57680    0.81120    1.000
    C18      C        0.58850    0.65900    0.86570    1.000
    C19      C        0.53490    0.73500    0.92480    1.000
    C20      C        0.66590    0.81740    0.97870    1.000
    C21      C        0.20250    0.00680    0.67450    1.000
    C22      C        0.49180    0.00680    0.67640    1.000
    C23      C        0.83290    0.18020    0.03280    1.000
    C24      C        0.96080    0.25720    0.09140    1.000
    C25      C        0.90660    0.33480    0.14840    1.000
    C26      C        0.03740    0.41680    0.20200    1.000
    C27      C        0.98600    0.49620    0.25780    1.000
    C28      C        0.11890    0.57680    0.31120    1.000
    C29      C        0.07050    0.65900    0.36570    1.000
    C30      C        0.20010    0.73500    0.42480    1.000
    C31      C        0.15150    0.81740    0.47870    1.000
    C32      C        0.80430    0.00680    0.17450    1.000
    C33      C        0.51500    0.00680    0.17640    1.000
    C34      C        0.65270    0.81980    0.46720    1.000
    C35      C        0.70360    0.74280    0.40860    1.000
    C36      C        0.57180    0.66520    0.35160    1.000
    C37      C        0.62060    0.58320    0.29800    1.000
    C38      C        0.48980    0.50380    0.24220    1.000
    C39      C        0.54210    0.42320    0.18880    1.000
    C40      C        0.41150    0.34100    0.13430    1.000
    C41      C        0.46510    0.26500    0.07520    1.000
    C42      C        0.33410    0.18260    0.02130    1.000
    C43      C        0.79750    0.99320    0.32550    1.000
    C44      C        0.50820    0.99320    0.32360    1.000
    N1       N        0.10550    0.88540    0.02840    1.000
    N2       N        0.88520    0.11860    0.56360    1.000
    N3       N        0.10690    0.98880    0.87210    1.000
    N4       N        0.57670    0.99040    0.86790    1.000
    N5       N        0.22010    0.11460    0.47160    1.000
    N6       N        0.76660    0.88140    0.93640    1.000
    N7       N        0.11810    0.01120    0.62790    1.000
    N8       N        0.58630    0.00960    0.63210    1.000
    N9       N        0.89450    0.11460    0.97160    1.000
    N10      N        0.11480    0.88140    0.43640    1.000
    N11      N        0.89310    0.01120    0.12790    1.000
    N12      N        0.42330    0.00960    0.13210    1.000
    N13      N        0.77990    0.88540    0.52840    1.000
    N14      N        0.23340    0.11860    0.06360    1.000
    N15      N        0.88190    0.98880    0.37210    1.000
    N16      N        0.41370    0.99040    0.36790    1.000
