# CIF file generated by openbabel 3.1.0, see https://openbabel.org
data_I
_chemical_name_common 'image0'
_cell_length_a 33.48
_cell_length_b 33.48
_cell_length_c 105.59
_cell_angle_alpha 90
_cell_angle_beta 90
_cell_angle_gamma 120
_space_group_name_H-M_alt 'P 1'
_space_group_name_Hall 'P 1'
loop_
    _symmetry_equiv_pos_as_xyz
    x,y,z
loop_
    _atom_site_label
    _atom_site_type_symbol
    _atom_site_fract_x
    _atom_site_fract_y
    _atom_site_fract_z
    _atom_site_occupancy
    Zn1      Zn       0.77898    0.40121    0.03962    1.000
    O1       O        0.72220    0.38170    0.03097    1.000
    O2       O        0.82570    0.41850    0.02634    1.000
    O3       O        0.79640    0.45510    0.04914    1.000
    O4       O        0.78400    0.35940    0.05005    1.000
    Zn2      Zn       0.73910    0.44170    0.02340    1.000
    C1       C        0.82230    0.44130    0.01729    1.000
    C2       C        0.78570    0.48650    0.04567    1.000
    O5       O        0.79580    0.45590    0.01466    1.000
    O6       O        0.75970    0.48550    0.03682    1.000
    O7       O        0.70890    0.46090    0.01148    1.000
    O8       O        0.67930    0.38790    0.05389    1.000
    C3       C        0.85940    0.45080    0.00707    1.000
    C4       C        0.80470    0.52810    0.05462    1.000
    C5       C        0.86180    0.47490    0.99556    1.000
    C6       C        0.89150    0.43820    0.00822    1.000
    C7       C        0.83300    0.53360    0.06569    1.000
    C8       C        0.80120    0.56570    0.05127    1.000
    C9       C        0.89420    0.48360    0.98717    1.000
    H1       H        0.84000    0.48450    0.99400    1.000
    H2       H        0.89080    0.42190    0.01570    1.000
    C10      C        0.92560    0.44700    0.99940    1.000
    C11      C        0.85180    0.57310    0.07317    1.000
    H3       H        0.83880    0.50940    0.06790    1.000
    H4       H        0.78720    0.56600    0.04350    1.000
    C12      C        0.81880    0.60500    0.05963    1.000
    C13      C        0.92680    0.46910    0.98817    1.000
    H5       H        0.89570    0.50110    0.97990    1.000
    H6       H        0.94790    0.43800    0.00100    1.000
    C14      C        0.84350    0.60790    0.07022    1.000
    H7       H        0.87030    0.57580    0.08030    1.000
    H8       H        0.81310    0.62940    0.05770    1.000
    C15      C        0.96030    0.47510    0.97818    1.000
    C16      C        0.85880    0.64980    0.07836    1.000
    H9       H        0.99210    0.49410    0.98140    1.000
    H10      H        0.95590    0.44460    0.97570    1.000
    O9       O        0.95390    0.49650    0.96774    1.000
    H11      H        0.87570    0.67810    0.07320    1.000
    H12      H        0.83170    0.64960    0.08220    1.000
    O10      O        0.88750    0.64890    0.08787    1.000
    C17      C        0.99030    0.51770    0.95921    1.000
    C18      C        0.90770    0.68550    0.09548    1.000
    C19      C        0.02450    0.50550    0.95893    1.000
    C20      C        0.98180    0.53810    0.94822    1.000
    C21      C        0.89680    0.71960    0.09558    1.000
    C22      C        0.93120    0.68000    0.10635    1.000
    H13      H        0.02350    0.48290    0.96460    1.000
    C23      C        0.06030    0.52720    0.95016    1.000
    C24      C        0.01690    0.55820    0.93991    1.000
    C25      C        0.94380    0.54690    0.94580    1.000
    C26      C        0.91840    0.75540    0.10500    1.000
    H14      H        0.87570    0.71980    0.08960    1.000
    C27      C        0.95260    0.71410    0.11521    1.000
    C28      C        0.94340    0.64360    0.10815    1.000
    H15      H        0.08790    0.52590    0.95110    1.000
    C29      C        0.05440    0.55150    0.93969    1.000
    C30      C        0.00860    0.58800    0.93026    1.000
    H16      H        0.91820    0.53130    0.95210    1.000
    C31      C        0.92900    0.53380    0.93350    1.000
    C32      C        0.96650    0.59760    0.94650    1.000
    C33      C        0.94550    0.74980    0.11540    1.000
    H17      H        0.91540    0.78210    0.10460    1.000
    C34      C        0.98260    0.71120    0.12437    1.000
    H18      H        0.92870    0.61840    0.10170    1.000
    C35      C        0.99210    0.66390    0.10855    1.000
    C36      C        0.92510    0.62680    0.12191    1.000
    O11      O        0.08660    0.57250    0.93094    1.000
    H19      H        0.03380    0.60350    0.92380    1.000
    C37      C        0.96180    0.55320    0.92450    1.000
    C38      C        0.00020    0.62010    0.93760    1.000
    C39      C        0.88460    0.50370    0.92940    1.000
    C40      C        0.95420    0.62330    0.95450    1.000
    O12      O        0.96260    0.78690    0.12418    1.000
    H20      H        0.99880    0.73880    0.13000    1.000
    C41      C        0.01370    0.69990    0.11726    1.000
    C42      C        0.94770    0.66600    0.13138    1.000
    C43      C        0.02010    0.65220    0.10137    1.000
    C44      C        0.89520    0.58230    0.12564    1.000
    C45      C        0.12000    0.56450    0.93005    1.000
    C46      C        0.94930    0.54070    0.91050    1.000
    C47      C        0.02370    0.66290    0.93583    1.000
    C48      C        0.87770    0.49170    0.91400    1.000
    H21      H        0.85930    0.49060    0.93510    1.000
    C49      C        0.97820    0.66860    0.95360    1.000
    H22      H        0.92950    0.60850    0.96040    1.000
    C50      C        0.94450    0.81570    0.12557    1.000
    C51      C        0.05860    0.72170    0.11860    1.000
    C52      C        0.93680    0.65550    0.14378    1.000
    H23      H        0.00550    0.62650    0.09580    1.000
    C53      C        0.06670    0.67530    0.10190    1.000
    H24      H        0.88120    0.55790    0.11970    1.000
    C54      C        0.88610    0.57440    0.13864    1.000
    H25      H        0.10690    0.53090    0.92890    1.000
    H26      H        0.13680    0.57290    0.93820    1.000
    C55      C        0.15430    0.58900    0.91969    1.000
    H27      H        0.97250    0.55500    0.90420    1.000
    C56      C        0.90580    0.50960    0.90700    1.000
    H28      H        0.04780    0.67500    0.92970    1.000
    C57      C        0.01390    0.69370    0.94300    1.000
    H29      H        0.84830    0.46850    0.91110    1.000
    H30      H        0.97330    0.68650    0.95970    1.000
    H31      H        0.91040    0.79740    0.12600    1.000
    H32      H        0.95320    0.83700    0.11830    1.000
    C58      C        0.96340    0.84180    0.13730    1.000
    C59      C        0.08440    0.70810    0.11120    1.000
    H33      H        0.07340    0.74650    0.12440    1.000
    C60      C        0.90570    0.61320    0.14751    1.000
    H34      H        0.95180    0.67900    0.15000    1.000
    H35      H        0.08540    0.66940    0.09630    1.000
    H36      H        0.86730    0.54390    0.14170    1.000
    C61      C        0.14280    0.61030    0.91042    1.000
    C62      C        0.19790    0.59220    0.91853    1.000
    H37      H        0.89920    0.50290    0.89830    1.000
    H38      H        0.02800    0.72590    0.94140    1.000
    C63      C        0.95270    0.87700    0.14120    1.000
    C64      C        0.98520    0.83140    0.14580    1.000
    H39      H        0.11660    0.72260    0.11280    1.000
    H40      H        0.89600    0.60810    0.15610    1.000
    H41      H        0.11400    0.60920    0.91100    1.000
    C65      C        0.17140    0.63350    0.90009    1.000
    C66      C        0.22480    0.61460    0.90838    1.000
    H42      H        0.20830    0.57900    0.92480    1.000
    H43      H        0.93580    0.88650    0.13600    1.000
    C67      C        0.96900    0.89600    0.15328    1.000
    C68      C        0.00730    0.85840    0.15779    1.000
    H44      H        0.98740    0.80450    0.14440    1.000
    H45      H        0.16180    0.64670    0.89370    1.000
    C69      C        0.21530    0.63660    0.89959    1.000
    H46      H        0.25290    0.61430    0.90750    1.000
    H47      H        0.95980    0.91720    0.15600    1.000
    C70      C        0.99420    0.88970    0.16117    1.000
    H48      H        0.02870    0.85400    0.16260    1.000
    C71      C        0.24730    0.66350    0.88920    1.000
    C72      C        0.01540    0.91840    0.17190    1.000
    O13      O        0.99340    0.93650    0.17579    1.000
    Zn3      Zn       0.44565    0.73454    0.37295    1.000
    O14      O        0.38887    0.71503    0.36430    1.000
    O15      O        0.49237    0.75183    0.35967    1.000
    O16      O        0.46307    0.78843    0.38247    1.000
    O17      O        0.45067    0.69273    0.38338    1.000
    Zn4      Zn       0.40577    0.77503    0.35673    1.000
    C73      C        0.48897    0.77463    0.35062    1.000
    C74      C        0.45237    0.81983    0.37900    1.000
    O18      O        0.46247    0.78923    0.34799    1.000
    O19      O        0.42637    0.81883    0.37015    1.000
    O20      O        0.37557    0.79423    0.34481    1.000
    O21      O        0.34597    0.72123    0.38722    1.000
    C75      C        0.52607    0.78413    0.34040    1.000
    C76      C        0.47137    0.86143    0.38795    1.000
    C77      C        0.52847    0.80823    0.32889    1.000
    C78      C        0.55817    0.77153    0.34155    1.000
    C79      C        0.49967    0.86693    0.39902    1.000
    C80      C        0.46787    0.89903    0.38460    1.000
    C81      C        0.56087    0.81693    0.32050    1.000
    H49      H        0.50667    0.81783    0.32733    1.000
    H50      H        0.55747    0.75523    0.34903    1.000
    C82      C        0.59227    0.78033    0.33273    1.000
    C83      C        0.51847    0.90643    0.40650    1.000
    H51      H        0.50547    0.84273    0.40123    1.000
    H52      H        0.45387    0.89933    0.37683    1.000
    C84      C        0.48547    0.93833    0.39296    1.000
    C85      C        0.59347    0.80243    0.32150    1.000
    H53      H        0.56237    0.83443    0.31323    1.000
    H54      H        0.61457    0.77133    0.33433    1.000
    C86      C        0.51017    0.94123    0.40355    1.000
    H55      H        0.53697    0.90913    0.41363    1.000
    H56      H        0.47977    0.96273    0.39103    1.000
    C87      C        0.62697    0.80843    0.31151    1.000
    C88      C        0.52547    0.98313    0.41169    1.000
    H57      H        0.65877    0.82743    0.31473    1.000
    H58      H        0.62257    0.77793    0.30903    1.000
    O22      O        0.62057    0.82983    0.30107    1.000
    H59      H        0.54237    0.01143    0.40653    1.000
    H60      H        0.49837    0.98293    0.41553    1.000
    O23      O        0.55417    0.98223    0.42120    1.000
    C89      C        0.65697    0.85103    0.29254    1.000
    C90      C        0.57437    0.01883    0.42881    1.000
    C91      C        0.69117    0.83883    0.29226    1.000
    C92      C        0.64847    0.87143    0.28155    1.000
    C93      C        0.56347    0.05293    0.42891    1.000
    C94      C        0.59787    0.01333    0.43968    1.000
    H61      H        0.69017    0.81623    0.29793    1.000
    C95      C        0.72697    0.86053    0.28349    1.000
    C96      C        0.68357    0.89153    0.27324    1.000
    C97      C        0.61047    0.88023    0.27913    1.000
    C98      C        0.58507    0.08873    0.43833    1.000
    H62      H        0.54237    0.05313    0.42293    1.000
    C99      C        0.61927    0.04743    0.44854    1.000
    C100     C        0.61007    0.97693    0.44148    1.000
    H63      H        0.75457    0.85923    0.28443    1.000
    C101     C        0.72107    0.88483    0.27302    1.000
    C102     C        0.67527    0.92133    0.26359    1.000
    H64      H        0.58487    0.86463    0.28543    1.000
    C103     C        0.59567    0.86713    0.26683    1.000
    C104     C        0.63317    0.93093    0.27983    1.000
    C105     C        0.61217    0.08313    0.44873    1.000
    H65      H        0.58207    0.11543    0.43793    1.000
    C106     C        0.64927    0.04453    0.45770    1.000
    H66      H        0.59537    0.95173    0.43503    1.000
    C107     C        0.65877    0.99723    0.44188    1.000
    C108     C        0.59177    0.96013    0.45524    1.000
    O24      O        0.75327    0.90583    0.26427    1.000
    H67      H        0.70047    0.93683    0.25713    1.000
    C109     C        0.62847    0.88653    0.25783    1.000
    C110     C        0.66687    0.95343    0.27093    1.000
    C111     C        0.55127    0.83703    0.26273    1.000
    C112     C        0.62087    0.95663    0.28783    1.000
    O25      O        0.62927    0.12023    0.45751    1.000
    H68      H        0.66547    0.07213    0.46333    1.000
    C113     C        0.68037    0.03323    0.45059    1.000
    C114     C        0.61437    0.99933    0.46471    1.000
    C115     C        0.68677    0.98553    0.43470    1.000
    C116     C        0.56187    0.91563    0.45897    1.000
    C117     C        0.78667    0.89783    0.26338    1.000
    C118     C        0.61597    0.87403    0.24383    1.000
    C119     C        0.69037    0.99623    0.26916    1.000
    C120     C        0.54437    0.82503    0.24733    1.000
    H69      H        0.52597    0.82393    0.26843    1.000
    C121     C        0.64487    0.00193    0.28693    1.000
    H70      H        0.59617    0.94183    0.29373    1.000
    C122     C        0.61117    0.14903    0.45890    1.000
    C123     C        0.72527    0.05503    0.45193    1.000
    C124     C        0.60347    0.98883    0.47711    1.000
    H71      H        0.67217    0.95983    0.42913    1.000
    C125     C        0.73337    0.00863    0.43523    1.000
    H72      H        0.54787    0.89123    0.45303    1.000
    C126     C        0.55277    0.90773    0.47197    1.000
    H73      H        0.77357    0.86423    0.26223    1.000
    H74      H        0.80347    0.90623    0.27153    1.000
    C127     C        0.82097    0.92233    0.25302    1.000
    H75      H        0.63917    0.88833    0.23753    1.000
    C128     C        0.57247    0.84293    0.24033    1.000
    H76      H        0.71447    0.00833    0.26303    1.000
    C129     C        0.68057    0.02703    0.27633    1.000
    H77      H        0.51497    0.80183    0.24443    1.000
    H78      H        0.63997    0.01983    0.29303    1.000
    H79      H        0.57707    0.13073    0.45933    1.000
    H80      H        0.61987    0.17033    0.45163    1.000
    C130     C        0.63007    0.17513    0.47063    1.000
    C131     C        0.75107    0.04143    0.44453    1.000
    H81      H        0.74007    0.07983    0.45773    1.000
    C132     C        0.57237    0.94653    0.48084    1.000
    H82      H        0.61847    0.01233    0.48333    1.000
    H83      H        0.75207    0.00273    0.42963    1.000
    H84      H        0.53397    0.87723    0.47503    1.000
    C133     C        0.80947    0.94363    0.24375    1.000
    C134     C        0.86457    0.92553    0.25186    1.000
    H85      H        0.56587    0.83623    0.23163    1.000
    H86      H        0.69467    0.05923    0.27473    1.000
    C135     C        0.61937    0.21033    0.47453    1.000
    C136     C        0.65187    0.16473    0.47913    1.000
    H87      H        0.78327    0.05593    0.44613    1.000
    H88      H        0.56267    0.94143    0.48943    1.000
    H89      H        0.78067    0.94253    0.24433    1.000
    C137     C        0.83807    0.96683    0.23342    1.000
    C138     C        0.89147    0.94793    0.24171    1.000
    H90      H        0.87497    0.91233    0.25813    1.000
    H91      H        0.60247    0.21983    0.46933    1.000
    C139     C        0.63567    0.22933    0.48661    1.000
    C140     C        0.67397    0.19173    0.49112    1.000
    H92      H        0.65407    0.13783    0.47773    1.000
    H93      H        0.82847    0.98003    0.22703    1.000
    C141     C        0.88197    0.96993    0.23292    1.000
    H94      H        0.91957    0.94763    0.24083    1.000
    H95      H        0.62647    0.25053    0.48933    1.000
    C142     C        0.66087    0.22303    0.49450    1.000
    H96      H        0.69537    0.18733    0.49593    1.000
    C143     C        0.91397    0.99683    0.22253    1.000
    C144     C        0.68207    0.25173    0.50523    1.000
    O26      O        0.66007    0.26983    0.50912    1.000
    Zn5      Zn       0.11231    0.06788    0.70629    1.000
    O27      O        0.05553    0.04837    0.69764    1.000
    O28      O        0.15903    0.08517    0.69301    1.000
    O29      O        0.12973    0.12177    0.71581    1.000
    O30      O        0.11733    0.02607    0.71672    1.000
    Zn6      Zn       0.07243    0.10837    0.69007    1.000
    C145     C        0.15563    0.10797    0.68396    1.000
    C146     C        0.11903    0.15317    0.71234    1.000
    O31      O        0.12913    0.12257    0.68133    1.000
    O32      O        0.09303    0.15217    0.70349    1.000
    O33      O        0.04223    0.12757    0.67815    1.000
    O34      O        0.01263    0.05457    0.72056    1.000
    C147     C        0.19273    0.11747    0.67374    1.000
    C148     C        0.13803    0.19477    0.72129    1.000
    C149     C        0.19513    0.14157    0.66223    1.000
    C150     C        0.22483    0.10487    0.67489    1.000
    C151     C        0.16633    0.20027    0.73236    1.000
    C152     C        0.13453    0.23237    0.71794    1.000
    C153     C        0.22753    0.15027    0.65384    1.000
    H97      H        0.17333    0.15117    0.66067    1.000
    H98      H        0.22413    0.08857    0.68237    1.000
    C154     C        0.25893    0.11367    0.66607    1.000
    C155     C        0.18513    0.23977    0.73984    1.000
    H99      H        0.17213    0.17607    0.73457    1.000
    H100     H        0.12053    0.23267    0.71017    1.000
    C156     C        0.15213    0.27167    0.72630    1.000
    C157     C        0.26013    0.13577    0.65484    1.000
    H101     H        0.22903    0.16777    0.64657    1.000
    H102     H        0.28123    0.10467    0.66767    1.000
    C158     C        0.17683    0.27457    0.73689    1.000
    H103     H        0.20363    0.24247    0.74697    1.000
    H104     H        0.14643    0.29607    0.72437    1.000
    C159     C        0.29363    0.14177    0.64485    1.000
    C160     C        0.19213    0.31647    0.74503    1.000
    H105     H        0.32543    0.16077    0.64807    1.000
    H106     H        0.28923    0.11127    0.64237    1.000
    O35      O        0.28723    0.16317    0.63441    1.000
    H107     H        0.20903    0.34477    0.73987    1.000
    H108     H        0.16503    0.31627    0.74887    1.000
    O36      O        0.22083    0.31557    0.75454    1.000
    C161     C        0.32363    0.18437    0.62588    1.000
    C162     C        0.24103    0.35217    0.76215    1.000
    C163     C        0.35783    0.17217    0.62560    1.000
    C164     C        0.31513    0.20477    0.61489    1.000
    C165     C        0.23013    0.38627    0.76225    1.000
    C166     C        0.26453    0.34667    0.77302    1.000
    H109     H        0.35683    0.14957    0.63127    1.000
    C167     C        0.39363    0.19387    0.61683    1.000
    C168     C        0.35023    0.22487    0.60658    1.000
    C169     C        0.27713    0.21357    0.61247    1.000
    C170     C        0.25173    0.42207    0.77167    1.000
    H110     H        0.20903    0.38647    0.75627    1.000
    C171     C        0.28593    0.38077    0.78188    1.000
    C172     C        0.27673    0.31027    0.77482    1.000
    H111     H        0.42123    0.19257    0.61777    1.000
    C173     C        0.38773    0.21817    0.60636    1.000
    C174     C        0.34193    0.25467    0.59693    1.000
    H112     H        0.25153    0.19797    0.61877    1.000
    C175     C        0.26233    0.20047    0.60017    1.000
    C176     C        0.29983    0.26427    0.61317    1.000
    C177     C        0.27883    0.41647    0.78207    1.000
    H113     H        0.24873    0.44877    0.77127    1.000
    C178     C        0.31593    0.37787    0.79104    1.000
    H114     H        0.26203    0.28507    0.76837    1.000
    C179     C        0.32543    0.33057    0.77522    1.000
    C180     C        0.25843    0.29347    0.78858    1.000
    O37      O        0.41993    0.23917    0.59761    1.000
    H115     H        0.36713    0.27017    0.59047    1.000
    C181     C        0.29513    0.21987    0.59117    1.000
    C182     C        0.33353    0.28677    0.60427    1.000
    C183     C        0.21793    0.17037    0.59607    1.000
    C184     C        0.28753    0.28997    0.62117    1.000
    O38      O        0.29593    0.45357    0.79085    1.000
    H116     H        0.33213    0.40547    0.79667    1.000
    C185     C        0.34703    0.36657    0.78393    1.000
    C186     C        0.28103    0.33267    0.79805    1.000
    C187     C        0.35343    0.31887    0.76804    1.000
    C188     C        0.22853    0.24897    0.79231    1.000
    C189     C        0.45333    0.23117    0.59672    1.000
    C190     C        0.28263    0.20737    0.57717    1.000
    C191     C        0.35703    0.32957    0.60250    1.000
    C192     C        0.21103    0.15837    0.58067    1.000
    H117     H        0.19263    0.15727    0.60177    1.000
    C193     C        0.31153    0.33527    0.62027    1.000
    H118     H        0.26283    0.27517    0.62707    1.000
    C194     C        0.27783    0.48237    0.79224    1.000
    C195     C        0.39193    0.38837    0.78527    1.000
    C196     C        0.27013    0.32217    0.81045    1.000
    H119     H        0.33883    0.29317    0.76247    1.000
    C197     C        0.40003    0.34197    0.76857    1.000
    H120     H        0.21453    0.22457    0.78637    1.000
    C198     C        0.21943    0.24107    0.80531    1.000
    H121     H        0.44023    0.19757    0.59557    1.000
    H122     H        0.47013    0.23957    0.60487    1.000
    C199     C        0.48763    0.25567    0.58636    1.000
    H123     H        0.30583    0.22167    0.57087    1.000
    C200     C        0.23913    0.17627    0.57367    1.000
    H124     H        0.38113    0.34167    0.59637    1.000
    C201     C        0.34723    0.36037    0.60967    1.000
    H125     H        0.18163    0.13517    0.57777    1.000
    H126     H        0.30663    0.35317    0.62637    1.000
    H127     H        0.24373    0.46407    0.79267    1.000
    H128     H        0.28653    0.50367    0.78497    1.000
    C202     C        0.29673    0.50847    0.80397    1.000
    C203     C        0.41773    0.37477    0.77787    1.000
    H129     H        0.40673    0.41317    0.79107    1.000
    C204     C        0.23903    0.27987    0.81418    1.000
    H130     H        0.28513    0.34567    0.81667    1.000
    H131     H        0.41873    0.33607    0.76297    1.000
    H132     H        0.20063    0.21057    0.80837    1.000
    C205     C        0.47613    0.27697    0.57709    1.000
    C206     C        0.53123    0.25887    0.58520    1.000
    H133     H        0.23253    0.16957    0.56497    1.000
    H134     H        0.36133    0.39257    0.60807    1.000
    C207     C        0.28603    0.54367    0.80787    1.000
    C208     C        0.31853    0.49807    0.81247    1.000
    H135     H        0.44993    0.38927    0.77947    1.000
    H136     H        0.22933    0.27477    0.82277    1.000
    H137     H        0.44733    0.27587    0.57767    1.000
    C209     C        0.50473    0.30017    0.56676    1.000
    C210     C        0.55813    0.28127    0.57505    1.000
    H138     H        0.54163    0.24567    0.59147    1.000
    H139     H        0.26913    0.55317    0.80267    1.000
    C211     C        0.30233    0.56267    0.81995    1.000
    C212     C        0.34063    0.52507    0.82446    1.000
    H140     H        0.32073    0.47117    0.81107    1.000
    H141     H        0.49513    0.31337    0.56037    1.000
    C213     C        0.54863    0.30327    0.56626    1.000
    H142     H        0.58623    0.28097    0.57417    1.000
    H143     H        0.29313    0.58387    0.82267    1.000
    C214     C        0.32753    0.55637    0.82784    1.000
    H144     H        0.36203    0.52067    0.82927    1.000
    C215     C        0.58063    0.33017    0.55587    1.000
    C216     C        0.34873    0.58507    0.83857    1.000
    O39      O        0.32673    0.60317    0.84246    1.000
    Zn7      Zn       0.59879    0.37777    0.03962    1.000
    O40      O        0.61830    0.34050    0.03097    1.000
    O41      O        0.58150    0.40720    0.02634    1.000
    O42      O        0.54490    0.34130    0.04914    1.000
    O43      O        0.64060    0.42460    0.05005    1.000
    Zn8      Zn       0.55830    0.29740    0.02340    1.000
    C217     C        0.55870    0.38100    0.01729    1.000
    C218     C        0.51350    0.29920    0.04567    1.000
    O44      O        0.54410    0.33990    0.01466    1.000
    O45      O        0.51450    0.27420    0.03682    1.000
    O46      O        0.53910    0.24800    0.01148    1.000
    O47      O        0.61210    0.29140    0.05389    1.000
    C219     C        0.54920    0.40860    0.00707    1.000
    C220     C        0.47190    0.27660    0.05462    1.000
    C221     C        0.52510    0.38690    0.99556    1.000
    C222     C        0.56180    0.45330    0.00822    1.000
    C223     C        0.46640    0.29940    0.06569    1.000
    C224     C        0.43430    0.23550    0.05127    1.000
    C225     C        0.51640    0.41060    0.98717    1.000
    H145     H        0.51550    0.35550    0.99400    1.000
    H146     H        0.57810    0.46890    0.01570    1.000
    C226     C        0.55300    0.47860    0.99940    1.000
    C227     C        0.42690    0.27870    0.07317    1.000
    H147     H        0.49060    0.32940    0.06790    1.000
    H148     H        0.43400    0.22120    0.04350    1.000
    C228     C        0.39500    0.21380    0.05963    1.000
    C229     C        0.53090    0.45770    0.98817    1.000
    H149     H        0.49890    0.39460    0.97990    1.000
    H150     H        0.56200    0.50990    0.00100    1.000
    C230     C        0.39210    0.23560    0.07022    1.000
    H151     H        0.42420    0.29450    0.08030    1.000
    H152     H        0.37060    0.18370    0.05770    1.000
    C231     C        0.52490    0.48520    0.97818    1.000
    C232     C        0.35020    0.20900    0.07836    1.000
    H153     H        0.50590    0.49800    0.98140    1.000
    H154     H        0.55540    0.51130    0.97570    1.000
    O48      O        0.50350    0.45740    0.96774    1.000
    H155     H        0.32190    0.19760    0.07320    1.000
    H156     H        0.35040    0.18210    0.08220    1.000
    O49      O        0.35110    0.23860    0.08787    1.000
    C233     C        0.48230    0.47260    0.95921    1.000
    C234     C        0.31450    0.22220    0.09548    1.000
    C235     C        0.49450    0.51900    0.95893    1.000
    C236     C        0.46190    0.44370    0.94822    1.000
    C237     C        0.28040    0.17720    0.09558    1.000
    C238     C        0.32000    0.25120    0.10635    1.000
    H157     H        0.51710    0.54060    0.96460    1.000
    C239     C        0.47280    0.53310    0.95016    1.000
    C240     C        0.44180    0.45870    0.93991    1.000
    C241     C        0.45310    0.39690    0.94580    1.000
    C242     C        0.24460    0.16300    0.10500    1.000
    H158     H        0.28020    0.15590    0.08960    1.000
    C243     C        0.28590    0.23850    0.11521    1.000
    C244     C        0.35640    0.29980    0.10815    1.000
    H159     H        0.47410    0.56200    0.95110    1.000
    C245     C        0.44850    0.50290    0.93969    1.000
    C246     C        0.41200    0.42060    0.93026    1.000
    H160     H        0.46870    0.38690    0.95210    1.000
    C247     C        0.46620    0.39520    0.93350    1.000
    C248     C        0.40240    0.36890    0.94650    1.000
    C249     C        0.25020    0.19570    0.11540    1.000
    H161     H        0.21790    0.13330    0.10460    1.000
    C250     C        0.28880    0.27140    0.12437    1.000
    H162     H        0.38160    0.31030    0.10170    1.000
    C251     C        0.33610    0.32820    0.10855    1.000
    C252     C        0.37320    0.29830    0.12191    1.000
    O50      O        0.42750    0.51410    0.93094    1.000
    H163     H        0.39650    0.43030    0.92380    1.000
    C253     C        0.44680    0.40860    0.92450    1.000
    C254     C        0.37990    0.38010    0.93760    1.000
    C255     C        0.49630    0.38090    0.92940    1.000
    C256     C        0.37670    0.33090    0.95450    1.000
    O51      O        0.21310    0.17570    0.12418    1.000
    H164     H        0.26120    0.26000    0.13000    1.000
    C257     C        0.30010    0.31380    0.11726    1.000
    C258     C        0.33400    0.28170    0.13138    1.000
    C259     C        0.34780    0.36790    0.10137    1.000
    C260     C        0.41770    0.31290    0.12564    1.000
    C261     C        0.43550    0.55550    0.93005    1.000
    C262     C        0.45930    0.40860    0.91050    1.000
    C263     C        0.33710    0.36080    0.93583    1.000
    C264     C        0.50830    0.38600    0.91400    1.000
    H165     H        0.50940    0.36870    0.93510    1.000
    C265     C        0.33140    0.30960    0.95360    1.000
    H166     H        0.39150    0.32100    0.96040    1.000
    C266     C        0.18430    0.12880    0.12557    1.000
    C267     C        0.27830    0.33690    0.11860    1.000
    C268     C        0.34450    0.28130    0.14378    1.000
    H167     H        0.37350    0.37900    0.09580    1.000
    C269     C        0.32470    0.39140    0.10190    1.000
    H168     H        0.44210    0.32330    0.11970    1.000
    C270     C        0.42560    0.31170    0.13864    1.000
    H169     H        0.46910    0.57600    0.92890    1.000
    H170     H        0.42710    0.56390    0.93820    1.000
    C271     C        0.41100    0.56530    0.91969    1.000
    H171     H        0.44500    0.41750    0.90420    1.000
    C272     C        0.49040    0.39620    0.90700    1.000
    H172     H        0.32500    0.37280    0.92970    1.000
    C273     C        0.30630    0.32020    0.94300    1.000
    H173     H        0.53150    0.37980    0.91110    1.000
    H174     H        0.31350    0.28680    0.95970    1.000
    H175     H        0.20260    0.11300    0.12600    1.000
    H176     H        0.16300    0.11620    0.11830    1.000
    C274     C        0.15820    0.12160    0.13730    1.000
    C275     C        0.29190    0.37630    0.11120    1.000
    H177     H        0.25350    0.32690    0.12440    1.000
    C276     C        0.38680    0.29250    0.14751    1.000
    H178     H        0.32100    0.27280    0.15000    1.000
    H179     H        0.33060    0.41600    0.09630    1.000
    H180     H        0.45610    0.32340    0.14170    1.000
    C277     C        0.38970    0.53250    0.91042    1.000
    C278     C        0.40780    0.60570    0.91853    1.000
    H181     H        0.49710    0.39630    0.89830    1.000
    H182     H        0.27410    0.30210    0.94140    1.000
    C279     C        0.12300    0.07570    0.14120    1.000
    C280     C        0.16860    0.15380    0.14580    1.000
    H183     H        0.27740    0.39400    0.11280    1.000
    H184     H        0.39190    0.28790    0.15610    1.000
    H185     H        0.39080    0.50480    0.91100    1.000
    C281     C        0.36650    0.53790    0.90009    1.000
    C282     C        0.38540    0.61020    0.90838    1.000
    H186     H        0.42100    0.62930    0.92480    1.000
    H187     H        0.11350    0.04930    0.13600    1.000
    C283     C        0.10400    0.07300    0.15328    1.000
    C284     C        0.14160    0.14890    0.15779    1.000
    H188     H        0.19550    0.18290    0.14440    1.000
    H189     H        0.35330    0.51510    0.89370    1.000
    C285     C        0.36340    0.57870    0.89959    1.000
    H190     H        0.38570    0.63860    0.90750    1.000
    H191     H        0.08280    0.04260    0.15600    1.000
    C286     C        0.11030    0.10450    0.16117    1.000
    H192     H        0.14600    0.17470    0.16260    1.000
    C287     C        0.33650    0.58380    0.88920    1.000
    C288     C        0.08160    0.09700    0.17190    1.000
    O52      O        0.06350    0.05690    0.17579    1.000
    Zn9      Zn       0.26546    0.71110    0.37295    1.000
    O53      O        0.28497    0.67383    0.36430    1.000
    O54      O        0.24817    0.74053    0.35967    1.000
    O55      O        0.21157    0.67463    0.38247    1.000
    O56      O        0.30727    0.75793    0.38338    1.000
    Zn10     Zn       0.22497    0.63073    0.35673    1.000
    C289     C        0.22537    0.71433    0.35062    1.000
    C290     C        0.18017    0.63253    0.37900    1.000
    O57      O        0.21077    0.67323    0.34799    1.000
    O58      O        0.18117    0.60753    0.37015    1.000
    O59      O        0.20577    0.58133    0.34481    1.000
    O60      O        0.27877    0.62473    0.38722    1.000
    C291     C        0.21587    0.74193    0.34040    1.000
    C292     C        0.13857    0.60993    0.38795    1.000
    C293     C        0.19177    0.72023    0.32889    1.000
    C294     C        0.22847    0.78663    0.34155    1.000
    C295     C        0.13307    0.63273    0.39902    1.000
    C296     C        0.10097    0.56883    0.38460    1.000
    C297     C        0.18307    0.74393    0.32050    1.000
    H193     H        0.18217    0.68883    0.32733    1.000
    H194     H        0.24477    0.80223    0.34903    1.000
    C298     C        0.21967    0.81193    0.33273    1.000
    C299     C        0.09357    0.61203    0.40650    1.000
    H195     H        0.15727    0.66273    0.40123    1.000
    H196     H        0.10067    0.55453    0.37683    1.000
    C300     C        0.06167    0.54713    0.39296    1.000
    C301     C        0.19757    0.79103    0.32150    1.000
    H197     H        0.16557    0.72793    0.31323    1.000
    H198     H        0.22867    0.84323    0.33433    1.000
    C302     C        0.05877    0.56893    0.40355    1.000
    H199     H        0.09087    0.62783    0.41363    1.000
    H200     H        0.03727    0.51703    0.39103    1.000
    C303     C        0.19157    0.81853    0.31151    1.000
    C304     C        0.01687    0.54233    0.41169    1.000
    H201     H        0.17257    0.83133    0.31473    1.000
    H202     H        0.22207    0.84463    0.30903    1.000
    O61      O        0.17017    0.79073    0.30107    1.000
    H203     H        0.98857    0.53093    0.40653    1.000
    H204     H        0.01707    0.51543    0.41553    1.000
    O62      O        0.01777    0.57193    0.42120    1.000
    C305     C        0.14897    0.80593    0.29254    1.000
    C306     C        0.98117    0.55553    0.42881    1.000
    C307     C        0.16117    0.85233    0.29226    1.000
    C308     C        0.12857    0.77703    0.28155    1.000
    C309     C        0.94707    0.51053    0.42891    1.000
    C310     C        0.98667    0.58453    0.43968    1.000
    H205     H        0.18377    0.87393    0.29793    1.000
    C311     C        0.13947    0.86643    0.28349    1.000
    C312     C        0.10847    0.79203    0.27324    1.000
    C313     C        0.11977    0.73023    0.27913    1.000
    C314     C        0.91127    0.49633    0.43833    1.000
    H206     H        0.94687    0.48923    0.42293    1.000
    C315     C        0.95257    0.57183    0.44854    1.000
    C316     C        0.02307    0.63313    0.44148    1.000
    H207     H        0.14077    0.89533    0.28443    1.000
    C317     C        0.11517    0.83623    0.27302    1.000
    C318     C        0.07867    0.75393    0.26359    1.000
    H208     H        0.13537    0.72023    0.28543    1.000
    C319     C        0.13287    0.72853    0.26683    1.000
    C320     C        0.06907    0.70223    0.27983    1.000
    C321     C        0.91687    0.52903    0.44873    1.000
    H209     H        0.88457    0.46663    0.43793    1.000
    C322     C        0.95547    0.60473    0.45770    1.000
    H210     H        0.04827    0.64363    0.43503    1.000
    C323     C        0.00277    0.66153    0.44188    1.000
    C324     C        0.03987    0.63163    0.45524    1.000
    O63      O        0.09417    0.84743    0.26427    1.000
    H211     H        0.06317    0.76363    0.25713    1.000
    C325     C        0.11347    0.74193    0.25783    1.000
    C326     C        0.04657    0.71343    0.27093    1.000
    C327     C        0.16297    0.71423    0.26273    1.000
    C328     C        0.04337    0.66423    0.28783    1.000
    O64      O        0.87977    0.50903    0.45751    1.000
    H212     H        0.92787    0.59333    0.46333    1.000
    C329     C        0.96677    0.64713    0.45059    1.000
    C330     C        0.00067    0.61503    0.46471    1.000
    C331     C        0.01447    0.70123    0.43470    1.000
    C332     C        0.08437    0.64623    0.45897    1.000
    C333     C        0.10217    0.88883    0.26338    1.000
    C334     C        0.12597    0.74193    0.24383    1.000
    C335     C        0.00377    0.69413    0.26916    1.000
    C336     C        0.17497    0.71933    0.24733    1.000
    H213     H        0.17607    0.70203    0.26843    1.000
    C337     C        0.99807    0.64293    0.28693    1.000
    H214     H        0.05817    0.65433    0.29373    1.000
    C338     C        0.85097    0.46213    0.45890    1.000
    C339     C        0.94497    0.67023    0.45193    1.000
    C340     C        0.01117    0.61463    0.47711    1.000
    H215     H        0.04017    0.71233    0.42913    1.000
    C341     C        0.99137    0.72473    0.43523    1.000
    H216     H        0.10877    0.65663    0.45303    1.000
    C342     C        0.09227    0.64503    0.47197    1.000
    H217     H        0.13577    0.90933    0.26223    1.000
    H218     H        0.09377    0.89723    0.27153    1.000
    C343     C        0.07767    0.89863    0.25302    1.000
    H219     H        0.11167    0.75083    0.23753    1.000
    C344     C        0.15707    0.72953    0.24033    1.000
    H220     H        0.99167    0.70613    0.26303    1.000
    C345     C        0.97297    0.65353    0.27633    1.000
    H221     H        0.19817    0.71313    0.24443    1.000
    H222     H        0.98017    0.62013    0.29303    1.000
    H223     H        0.86927    0.44633    0.45933    1.000
    H224     H        0.82967    0.44953    0.45163    1.000
    C346     C        0.82487    0.45493    0.47063    1.000
    C347     C        0.95857    0.70963    0.44453    1.000
    H225     H        0.92017    0.66023    0.45773    1.000
    C348     C        0.05347    0.62583    0.48084    1.000
    H226     H        0.98767    0.60613    0.48333    1.000
    H227     H        0.99727    0.74933    0.42963    1.000
    H228     H        0.12277    0.65673    0.47503    1.000
    C349     C        0.05637    0.86583    0.24375    1.000
    C350     C        0.07447    0.93903    0.25186    1.000
    H229     H        0.16377    0.72963    0.23163    1.000
    H230     H        0.94077    0.63543    0.27473    1.000
    C351     C        0.78967    0.40903    0.47453    1.000
    C352     C        0.83527    0.48713    0.47913    1.000
    H231     H        0.94407    0.72733    0.44613    1.000
    H232     H        0.05857    0.62123    0.48943    1.000
    H233     H        0.05747    0.83813    0.24433    1.000
    C353     C        0.03317    0.87123    0.23342    1.000
    C354     C        0.05207    0.94353    0.24171    1.000
    H234     H        0.08767    0.96263    0.25813    1.000
    H235     H        0.78017    0.38263    0.46933    1.000
    C355     C        0.77067    0.40633    0.48661    1.000
    C356     C        0.80827    0.48223    0.49112    1.000
    H236     H        0.86217    0.51623    0.47773    1.000
    H237     H        0.01997    0.84843    0.22703    1.000
    C357     C        0.03007    0.91203    0.23292    1.000
    H238     H        0.05237    0.97193    0.24083    1.000
    H239     H        0.74947    0.37593    0.48933    1.000
    C358     C        0.77697    0.43783    0.49450    1.000
    H240     H        0.81267    0.50803    0.49593    1.000
    C359     C        0.00317    0.91713    0.22253    1.000
    C360     C        0.74827    0.43033    0.50523    1.000
    O65      O        0.73017    0.39023    0.50912    1.000
    Zn11     Zn       0.93212    0.04444    0.70629    1.000
    O66      O        0.95163    0.00717    0.69764    1.000
    O67      O        0.91483    0.07387    0.69301    1.000
    O68      O        0.87823    0.00797    0.71581    1.000
    O69      O        0.97393    0.09127    0.71672    1.000
    Zn12     Zn       0.89163    0.96407    0.69007    1.000
    C361     C        0.89203    0.04767    0.68396    1.000
    C362     C        0.84683    0.96587    0.71234    1.000
    O70      O        0.87743    0.00657    0.68133    1.000
    O71      O        0.84783    0.94087    0.70349    1.000
    O72      O        0.87243    0.91467    0.67815    1.000
    O73      O        0.94543    0.95807    0.72056    1.000
    C363     C        0.88253    0.07527    0.67374    1.000
    C364     C        0.80523    0.94327    0.72129    1.000
    C365     C        0.85843    0.05357    0.66223    1.000
    C366     C        0.89513    0.11997    0.67489    1.000
    C367     C        0.79973    0.96607    0.73236    1.000
    C368     C        0.76763    0.90217    0.71794    1.000
    C369     C        0.84973    0.07727    0.65384    1.000
    H241     H        0.84883    0.02217    0.66067    1.000
    H242     H        0.91143    0.13557    0.68237    1.000
    C370     C        0.88633    0.14527    0.66607    1.000
    C371     C        0.76023    0.94537    0.73984    1.000
    H243     H        0.82393    0.99607    0.73457    1.000
    H244     H        0.76733    0.88787    0.71017    1.000
    C372     C        0.72833    0.88047    0.72630    1.000
    C373     C        0.86423    0.12437    0.65484    1.000
    H245     H        0.83223    0.06127    0.64657    1.000
    H246     H        0.89533    0.17657    0.66767    1.000
    C374     C        0.72543    0.90227    0.73689    1.000
    H247     H        0.75753    0.96117    0.74697    1.000
    H248     H        0.70393    0.85037    0.72437    1.000
    C375     C        0.85823    0.15187    0.64485    1.000
    C376     C        0.68353    0.87567    0.74503    1.000
    H249     H        0.83923    0.16467    0.64807    1.000
    H250     H        0.88873    0.17797    0.64237    1.000
    O74      O        0.83683    0.12407    0.63441    1.000
    H251     H        0.65523    0.86427    0.73987    1.000
    H252     H        0.68373    0.84877    0.74887    1.000
    O75      O        0.68443    0.90527    0.75454    1.000
    C377     C        0.81563    0.13927    0.62588    1.000
    C378     C        0.64783    0.88887    0.76215    1.000
    C379     C        0.82783    0.18567    0.62560    1.000
    C380     C        0.79523    0.11037    0.61489    1.000
    C381     C        0.61373    0.84387    0.76225    1.000
    C382     C        0.65333    0.91787    0.77302    1.000
    H253     H        0.85043    0.20727    0.63127    1.000
    C383     C        0.80613    0.19977    0.61683    1.000
    C384     C        0.77513    0.12537    0.60658    1.000
    C385     C        0.78643    0.06357    0.61247    1.000
    C386     C        0.57793    0.82967    0.77167    1.000
    H254     H        0.61353    0.82257    0.75627    1.000
    C387     C        0.61923    0.90517    0.78188    1.000
    C388     C        0.68973    0.96647    0.77482    1.000
    H255     H        0.80743    0.22867    0.61777    1.000
    C389     C        0.78183    0.16957    0.60636    1.000
    C390     C        0.74533    0.08727    0.59693    1.000
    H256     H        0.80203    0.05357    0.61877    1.000
    C391     C        0.79953    0.06187    0.60017    1.000
    C392     C        0.73573    0.03557    0.61317    1.000
    C393     C        0.58353    0.86237    0.78207    1.000
    H257     H        0.55123    0.79997    0.77127    1.000
    C394     C        0.62213    0.93807    0.79104    1.000
    H258     H        0.71493    0.97697    0.76837    1.000
    C395     C        0.66943    0.99487    0.77522    1.000
    C396     C        0.70653    0.96497    0.78858    1.000
    O76      O        0.76083    0.18077    0.59761    1.000
    H259     H        0.72983    0.09697    0.59047    1.000
    C397     C        0.78013    0.07527    0.59117    1.000
    C398     C        0.71323    0.04677    0.60427    1.000
    C399     C        0.82963    0.04757    0.59607    1.000
    C400     C        0.71003    0.99757    0.62117    1.000
    O77      O        0.54643    0.84237    0.79085    1.000
    H260     H        0.59453    0.92667    0.79667    1.000
    C401     C        0.63343    0.98047    0.78393    1.000
    C402     C        0.66733    0.94837    0.79805    1.000
    C403     C        0.68113    0.03457    0.76804    1.000
    C404     C        0.75103    0.97957    0.79231    1.000
    C405     C        0.76883    0.22217    0.59672    1.000
    C406     C        0.79263    0.07527    0.57717    1.000
    C407     C        0.67043    0.02747    0.60250    1.000
    C408     C        0.84163    0.05267    0.58067    1.000
    H261     H        0.84273    0.03537    0.60177    1.000
    C409     C        0.66473    0.97627    0.62027    1.000
    H262     H        0.72483    0.98767    0.62707    1.000
    C410     C        0.51763    0.79547    0.79224    1.000
    C411     C        0.61163    0.00357    0.78527    1.000
    C412     C        0.67783    0.94797    0.81045    1.000
    H263     H        0.70683    0.04567    0.76247    1.000
    C413     C        0.65803    0.05807    0.76857    1.000
    H264     H        0.77543    0.98997    0.78637    1.000
    C414     C        0.75893    0.97837    0.80531    1.000
    H265     H        0.80243    0.24267    0.59557    1.000
    H266     H        0.76043    0.23057    0.60487    1.000
    C415     C        0.74433    0.23197    0.58636    1.000
    H267     H        0.77833    0.08417    0.57087    1.000
    C416     C        0.82373    0.06287    0.57367    1.000
    H268     H        0.65833    0.03947    0.59637    1.000
    C417     C        0.63963    0.98687    0.60967    1.000
    H269     H        0.86483    0.04647    0.57777    1.000
    H270     H        0.64683    0.95347    0.62637    1.000
    H271     H        0.53593    0.77967    0.79267    1.000
    H272     H        0.49633    0.78287    0.78497    1.000
    C418     C        0.49153    0.78827    0.80397    1.000
    C419     C        0.62523    0.04297    0.77787    1.000
    H273     H        0.58683    0.99357    0.79107    1.000
    C420     C        0.72013    0.95917    0.81418    1.000
    H274     H        0.65433    0.93947    0.81667    1.000
    H275     H        0.66393    0.08267    0.76297    1.000
    H276     H        0.78943    0.99007    0.80837    1.000
    C421     C        0.72303    0.19917    0.57709    1.000
    C422     C        0.74113    0.27237    0.58520    1.000
    H277     H        0.83043    0.06297    0.56497    1.000
    H278     H        0.60743    0.96877    0.60807    1.000
    C423     C        0.45633    0.74237    0.80787    1.000
    C424     C        0.50193    0.82047    0.81247    1.000
    H279     H        0.61073    0.06067    0.77947    1.000
    H280     H        0.72523    0.95457    0.82277    1.000
    H281     H        0.72413    0.17147    0.57767    1.000
    C425     C        0.69983    0.20457    0.56676    1.000
    C426     C        0.71873    0.27687    0.57505    1.000
    H282     H        0.75433    0.29597    0.59147    1.000
    H283     H        0.44683    0.71597    0.80267    1.000
    C427     C        0.43733    0.73967    0.81995    1.000
    C428     C        0.47493    0.81557    0.82446    1.000
    H284     H        0.52883    0.84957    0.81107    1.000
    H285     H        0.68663    0.18177    0.56037    1.000
    C429     C        0.69673    0.24537    0.56626    1.000
    H286     H        0.71903    0.30527    0.57417    1.000
    H287     H        0.41613    0.70927    0.82267    1.000
    C430     C        0.44363    0.77117    0.82784    1.000
    H288     H        0.47933    0.84137    0.82927    1.000
    C431     C        0.66983    0.25047    0.55587    1.000
    C432     C        0.41493    0.76367    0.83857    1.000
    O78      O        0.39683    0.72357    0.84246    1.000
    Zn13     Zn       0.62223    0.22102    0.03962    1.000
    O79      O        0.65950    0.27780    0.03097    1.000
    O80      O        0.59280    0.17430    0.02634    1.000
    O81      O        0.65870    0.20360    0.04914    1.000
    O82      O        0.57540    0.21600    0.05005    1.000
    Zn14     Zn       0.70260    0.26090    0.02340    1.000
    C433     C        0.61900    0.17770    0.01729    1.000
    C434     C        0.70080    0.21430    0.04567    1.000
    O83      O        0.66010    0.20420    0.01466    1.000
    O84      O        0.72580    0.24030    0.03682    1.000
    O85      O        0.75200    0.29110    0.01148    1.000
    O86      O        0.70860    0.32070    0.05389    1.000
    C435     C        0.59140    0.14060    0.00707    1.000
    C436     C        0.72340    0.19530    0.05462    1.000
    C437     C        0.61310    0.13820    0.99556    1.000
    C438     C        0.54670    0.10850    0.00822    1.000
    C439     C        0.70060    0.16700    0.06569    1.000
    C440     C        0.76450    0.19880    0.05127    1.000
    C441     C        0.58940    0.10580    0.98717    1.000
    H289     H        0.64450    0.16000    0.99400    1.000
    H290     H        0.53110    0.10920    0.01570    1.000
    C442     C        0.52140    0.07440    0.99940    1.000
    C443     C        0.72130    0.14820    0.07317    1.000
    H291     H        0.67060    0.16120    0.06790    1.000
    H292     H        0.77880    0.21280    0.04350    1.000
    C444     C        0.78620    0.18120    0.05963    1.000
    C445     C        0.54230    0.07320    0.98817    1.000
    H293     H        0.60540    0.10430    0.97990    1.000
    H294     H        0.49010    0.05210    0.00100    1.000
    C446     C        0.76440    0.15650    0.07022    1.000
    H295     H        0.70550    0.12970    0.08030    1.000
    H296     H        0.81630    0.18690    0.05770    1.000
    C447     C        0.51480    0.03970    0.97818    1.000
    C448     C        0.79100    0.14120    0.07836    1.000
    H297     H        0.50200    0.00790    0.98140    1.000
    H298     H        0.48870    0.04410    0.97570    1.000
    O87      O        0.54260    0.04610    0.96774    1.000
    H299     H        0.80240    0.12430    0.07320    1.000
    H300     H        0.81790    0.16830    0.08220    1.000
    O88      O        0.76140    0.11250    0.08787    1.000
    C449     C        0.52740    0.00970    0.95921    1.000
    C450     C        0.77780    0.09230    0.09548    1.000
    C451     C        0.48100    0.97550    0.95893    1.000
    C452     C        0.55630    0.01820    0.94822    1.000
    C453     C        0.82280    0.10320    0.09558    1.000
    C454     C        0.74880    0.06880    0.10635    1.000
    H301     H        0.45940    0.97650    0.96460    1.000
    C455     C        0.46690    0.93970    0.95016    1.000
    C456     C        0.54130    0.98310    0.93991    1.000
    C457     C        0.60310    0.05620    0.94580    1.000
    C458     C        0.83700    0.08160    0.10500    1.000
    H302     H        0.84410    0.12430    0.08960    1.000
    C459     C        0.76150    0.04740    0.11521    1.000
    C460     C        0.70020    0.05660    0.10815    1.000
    H303     H        0.43800    0.91210    0.95110    1.000
    C461     C        0.49710    0.94560    0.93969    1.000
    C462     C        0.57940    0.99140    0.93026    1.000
    H304     H        0.61310    0.08180    0.95210    1.000
    C463     C        0.60480    0.07100    0.93350    1.000
    C464     C        0.63110    0.03350    0.94650    1.000
    C465     C        0.80430    0.05450    0.11540    1.000
    H305     H        0.86670    0.08460    0.10460    1.000
    C466     C        0.72860    0.01740    0.12437    1.000
    H306     H        0.68970    0.07130    0.10170    1.000
    C467     C        0.67180    0.00790    0.10855    1.000
    C468     C        0.70170    0.07490    0.12191    1.000
    O89      O        0.48590    0.91340    0.93094    1.000
    H307     H        0.56970    0.96620    0.92380    1.000
    C469     C        0.59140    0.03820    0.92450    1.000
    C470     C        0.61990    0.99980    0.93760    1.000
    C471     C        0.61910    0.11540    0.92940    1.000
    C472     C        0.66910    0.04580    0.95450    1.000
    O90      O        0.82430    0.03740    0.12418    1.000
    H308     H        0.74000    0.00120    0.13000    1.000
    C473     C        0.68620    0.98630    0.11726    1.000
    C474     C        0.71830    0.05230    0.13138    1.000
    C475     C        0.63210    0.97990    0.10137    1.000
    C476     C        0.68710    0.10480    0.12564    1.000
    C477     C        0.44450    0.88000    0.93005    1.000
    C478     C        0.59140    0.05070    0.91050    1.000
    C479     C        0.63920    0.97630    0.93583    1.000
    C480     C        0.61400    0.12230    0.91400    1.000
    H309     H        0.63130    0.14070    0.93510    1.000
    C481     C        0.69040    0.02180    0.95360    1.000
    H310     H        0.67900    0.07050    0.96040    1.000
    C482     C        0.87120    0.05550    0.12557    1.000
    C483     C        0.66310    0.94140    0.11860    1.000
    C484     C        0.71870    0.06320    0.14378    1.000
    H311     H        0.62100    0.99450    0.09580    1.000
    C485     C        0.60860    0.93330    0.10190    1.000
    H312     H        0.67670    0.11880    0.11970    1.000
    C486     C        0.68830    0.11390    0.13864    1.000
    H313     H        0.42400    0.89310    0.92890    1.000
    H314     H        0.43610    0.86320    0.93820    1.000
    C487     C        0.43470    0.84570    0.91969    1.000
    H315     H        0.58250    0.02750    0.90420    1.000
    C488     C        0.60380    0.09420    0.90700    1.000
    H316     H        0.62720    0.95220    0.92970    1.000
    C489     C        0.67980    0.98610    0.94300    1.000
    H317     H        0.62020    0.15170    0.91110    1.000
    H318     H        0.71320    0.02670    0.95970    1.000
    H319     H        0.88700    0.08960    0.12600    1.000
    H320     H        0.88380    0.04680    0.11830    1.000
    C490     C        0.87840    0.03660    0.13730    1.000
    C491     C        0.62370    0.91560    0.11120    1.000
    H321     H        0.67310    0.92660    0.12440    1.000
    C492     C        0.70750    0.09430    0.14751    1.000
    H322     H        0.72720    0.04820    0.15000    1.000
    H323     H        0.58400    0.91460    0.09630    1.000
    H324     H        0.67660    0.13270    0.14170    1.000
    C493     C        0.46750    0.85720    0.91042    1.000
    C494     C        0.39430    0.80210    0.91853    1.000
    H325     H        0.60370    0.10080    0.89830    1.000
    H326     H        0.69790    0.97200    0.94140    1.000
    C495     C        0.92430    0.04730    0.14120    1.000
    C496     C        0.84620    0.01480    0.14580    1.000
    H327     H        0.60600    0.88340    0.11280    1.000
    H328     H        0.71210    0.10400    0.15610    1.000
    H329     H        0.49520    0.88600    0.91100    1.000
    C497     C        0.46210    0.82860    0.90009    1.000
    C498     C        0.38980    0.77520    0.90838    1.000
    H330     H        0.37070    0.79170    0.92480    1.000
    H331     H        0.95070    0.06420    0.13600    1.000
    C499     C        0.92700    0.03100    0.15328    1.000
    C500     C        0.85110    0.99270    0.15779    1.000
    H332     H        0.81710    0.01260    0.14440    1.000
    H333     H        0.48490    0.83820    0.89370    1.000
    C501     C        0.42130    0.78470    0.89959    1.000
    H334     H        0.36140    0.74710    0.90750    1.000
    H335     H        0.95740    0.04020    0.15600    1.000
    C502     C        0.89550    0.00580    0.16117    1.000
    H336     H        0.82530    0.97130    0.16260    1.000
    C503     C        0.41620    0.75270    0.88920    1.000
    C504     C        0.90300    0.98460    0.17190    1.000
    O91      O        0.94310    0.00660    0.17579    1.000
    Zn15     Zn       0.28890    0.55435    0.37295    1.000
    O92      O        0.32617    0.61113    0.36430    1.000
    O93      O        0.25947    0.50763    0.35967    1.000
    O94      O        0.32537    0.53693    0.38247    1.000
    O95      O        0.24207    0.54933    0.38338    1.000
    Zn16     Zn       0.36927    0.59423    0.35673    1.000
    C505     C        0.28567    0.51103    0.35062    1.000
    C506     C        0.36747    0.54763    0.37900    1.000
    O96      O        0.32677    0.53753    0.34799    1.000
    O97      O        0.39247    0.57363    0.37015    1.000
    O98      O        0.41867    0.62443    0.34481    1.000
    O99      O        0.37527    0.65403    0.38722    1.000
    C507     C        0.25807    0.47393    0.34040    1.000
    C508     C        0.39007    0.52863    0.38795    1.000
    C509     C        0.27977    0.47153    0.32889    1.000
    C510     C        0.21337    0.44183    0.34155    1.000
    C511     C        0.36727    0.50033    0.39902    1.000
    C512     C        0.43117    0.53213    0.38460    1.000
    C513     C        0.25607    0.43913    0.32050    1.000
    H337     H        0.31117    0.49333    0.32733    1.000
    H338     H        0.19777    0.44253    0.34903    1.000
    C514     C        0.18807    0.40773    0.33273    1.000
    C515     C        0.38797    0.48153    0.40650    1.000
    H339     H        0.33727    0.49453    0.40123    1.000
    H340     H        0.44547    0.54613    0.37683    1.000
    C516     C        0.45287    0.51453    0.39296    1.000
    C517     C        0.20897    0.40653    0.32150    1.000
    H341     H        0.27207    0.43763    0.31323    1.000
    H342     H        0.15677    0.38543    0.33433    1.000
    C518     C        0.43107    0.48983    0.40355    1.000
    H343     H        0.37217    0.46303    0.41363    1.000
    H344     H        0.48297    0.52023    0.39103    1.000
    C519     C        0.18147    0.37303    0.31151    1.000
    C520     C        0.45767    0.47453    0.41169    1.000
    H345     H        0.16867    0.34123    0.31473    1.000
    H346     H        0.15537    0.37743    0.30903    1.000
    O100     O        0.20927    0.37943    0.30107    1.000
    H347     H        0.46907    0.45763    0.40653    1.000
    H348     H        0.48457    0.50163    0.41553    1.000
    O101     O        0.42807    0.44583    0.42120    1.000
    C521     C        0.19407    0.34303    0.29254    1.000
    C522     C        0.44447    0.42563    0.42881    1.000
    C523     C        0.14767    0.30883    0.29226    1.000
    C524     C        0.22297    0.35153    0.28155    1.000
    C525     C        0.48947    0.43653    0.42891    1.000
    C526     C        0.41547    0.40213    0.43968    1.000
    H349     H        0.12607    0.30983    0.29793    1.000
    C527     C        0.13357    0.27303    0.28349    1.000
    C528     C        0.20797    0.31643    0.27324    1.000
    C529     C        0.26977    0.38953    0.27913    1.000
    C530     C        0.50367    0.41493    0.43833    1.000
    H350     H        0.51077    0.45763    0.42293    1.000
    C531     C        0.42817    0.38073    0.44854    1.000
    C532     C        0.36687    0.38993    0.44148    1.000
    H351     H        0.10467    0.24543    0.28443    1.000
    C533     C        0.16377    0.27893    0.27302    1.000
    C534     C        0.24607    0.32473    0.26359    1.000
    H352     H        0.27977    0.41513    0.28543    1.000
    C535     C        0.27147    0.40433    0.26683    1.000
    C536     C        0.29777    0.36683    0.27983    1.000
    C537     C        0.47097    0.38783    0.44873    1.000
    H353     H        0.53337    0.41793    0.43793    1.000
    C538     C        0.39527    0.35073    0.45770    1.000
    H354     H        0.35637    0.40463    0.43503    1.000
    C539     C        0.33847    0.34123    0.44188    1.000
    C540     C        0.36837    0.40823    0.45524    1.000
    O102     O        0.15257    0.24673    0.26427    1.000
    H355     H        0.23637    0.29953    0.25713    1.000
    C541     C        0.25807    0.37153    0.25783    1.000
    C542     C        0.28657    0.33313    0.27093    1.000
    C543     C        0.28577    0.44873    0.26273    1.000
    C544     C        0.33577    0.37913    0.28783    1.000
    O103     O        0.49097    0.37073    0.45751    1.000
    H356     H        0.40667    0.33453    0.46333    1.000
    C545     C        0.35287    0.31963    0.45059    1.000
    C546     C        0.38497    0.38563    0.46471    1.000
    C547     C        0.29877    0.31323    0.43470    1.000
    C548     C        0.35377    0.43813    0.45897    1.000
    C549     C        0.11117    0.21333    0.26338    1.000
    C550     C        0.25807    0.38403    0.24383    1.000
    C551     C        0.30587    0.30963    0.26916    1.000
    C552     C        0.28067    0.45563    0.24733    1.000
    H357     H        0.29797    0.47403    0.26843    1.000
    C553     C        0.35707    0.35513    0.28693    1.000
    H358     H        0.34567    0.40383    0.29373    1.000
    C554     C        0.53787    0.38883    0.45890    1.000
    C555     C        0.32977    0.27473    0.45193    1.000
    C556     C        0.38537    0.39653    0.47711    1.000
    H359     H        0.28767    0.32783    0.42913    1.000
    C557     C        0.27527    0.26663    0.43523    1.000
    H360     H        0.34337    0.45213    0.45303    1.000
    C558     C        0.35497    0.44723    0.47197    1.000
    H361     H        0.09067    0.22643    0.26223    1.000
    H362     H        0.10277    0.19653    0.27153    1.000
    C559     C        0.10137    0.17903    0.25302    1.000
    H363     H        0.24917    0.36083    0.23753    1.000
    C560     C        0.27047    0.42753    0.24033    1.000
    H364     H        0.29387    0.28553    0.26303    1.000
    C561     C        0.34647    0.31943    0.27633    1.000
    H365     H        0.28687    0.48503    0.24443    1.000
    H366     H        0.37987    0.36003    0.29303    1.000
    H367     H        0.55367    0.42293    0.45933    1.000
    H368     H        0.55047    0.38013    0.45163    1.000
    C562     C        0.54507    0.36993    0.47063    1.000
    C563     C        0.29037    0.24893    0.44453    1.000
    H369     H        0.33977    0.25993    0.45773    1.000
    C564     C        0.37417    0.42763    0.48084    1.000
    H370     H        0.39387    0.38153    0.48333    1.000
    H371     H        0.25067    0.24793    0.42963    1.000
    H372     H        0.34327    0.46603    0.47503    1.000
    C565     C        0.13417    0.19053    0.24375    1.000
    C566     C        0.06097    0.13543    0.25186    1.000
    H373     H        0.27037    0.43413    0.23163    1.000
    H374     H        0.36457    0.30533    0.27473    1.000
    C567     C        0.59097    0.38063    0.47453    1.000
    C568     C        0.51287    0.34813    0.47913    1.000
    H375     H        0.27267    0.21673    0.44613    1.000
    H376     H        0.37877    0.43733    0.48943    1.000
    H377     H        0.16187    0.21933    0.24433    1.000
    C569     C        0.12877    0.16193    0.23342    1.000
    C570     C        0.05647    0.10853    0.24171    1.000
    H378     H        0.03737    0.12503    0.25813    1.000
    H379     H        0.61737    0.39753    0.46933    1.000
    C571     C        0.59367    0.36433    0.48661    1.000
    C572     C        0.51777    0.32603    0.49112    1.000
    H380     H        0.48377    0.34593    0.47773    1.000
    H381     H        0.15157    0.17153    0.22703    1.000
    C573     C        0.08797    0.11803    0.23292    1.000
    H382     H        0.02807    0.08043    0.24083    1.000
    H383     H        0.62407    0.37353    0.48933    1.000
    C574     C        0.56217    0.33913    0.49450    1.000
    H384     H        0.49197    0.30463    0.49593    1.000
    C575     C        0.08287    0.08603    0.22253    1.000
    C576     C        0.56967    0.31793    0.50523    1.000
    O104     O        0.60977    0.33993    0.50912    1.000
    Zn17     Zn       0.95556    0.88769    0.70629    1.000
    O105     O        0.99283    0.94447    0.69764    1.000
    O106     O        0.92613    0.84097    0.69301    1.000
    O107     O        0.99203    0.87027    0.71581    1.000
    O108     O        0.90873    0.88267    0.71672    1.000
    Zn18     Zn       0.03593    0.92757    0.69007    1.000
    C577     C        0.95233    0.84437    0.68396    1.000
    C578     C        0.03413    0.88097    0.71234    1.000
    O109     O        0.99343    0.87087    0.68133    1.000
    O110     O        0.05913    0.90697    0.70349    1.000
    O111     O        0.08533    0.95777    0.67815    1.000
    O112     O        0.04193    0.98737    0.72056    1.000
    C579     C        0.92473    0.80727    0.67374    1.000
    C580     C        0.05673    0.86197    0.72129    1.000
    C581     C        0.94643    0.80487    0.66223    1.000
    C582     C        0.88003    0.77517    0.67489    1.000
    C583     C        0.03393    0.83367    0.73236    1.000
    C584     C        0.09783    0.86547    0.71794    1.000
    C585     C        0.92273    0.77247    0.65384    1.000
    H385     H        0.97783    0.82667    0.66067    1.000
    H386     H        0.86443    0.77587    0.68237    1.000
    C586     C        0.85473    0.74107    0.66607    1.000
    C587     C        0.05463    0.81487    0.73984    1.000
    H387     H        0.00393    0.82787    0.73457    1.000
    H388     H        0.11213    0.87947    0.71017    1.000
    C588     C        0.11953    0.84787    0.72630    1.000
    C589     C        0.87563    0.73987    0.65484    1.000
    H389     H        0.93873    0.77097    0.64657    1.000
    H390     H        0.82343    0.71877    0.66767    1.000
    C590     C        0.09773    0.82317    0.73689    1.000
    H391     H        0.03883    0.79637    0.74697    1.000
    H392     H        0.14963    0.85357    0.72437    1.000
    C591     C        0.84813    0.70637    0.64485    1.000
    C592     C        0.12433    0.80787    0.74503    1.000
    H393     H        0.83533    0.67457    0.64807    1.000
    H394     H        0.82203    0.71077    0.64237    1.000
    O113     O        0.87593    0.71277    0.63441    1.000
    H395     H        0.13573    0.79097    0.73987    1.000
    H396     H        0.15123    0.83497    0.74887    1.000
    O114     O        0.09473    0.77917    0.75454    1.000
    C593     C        0.86073    0.67637    0.62588    1.000
    C594     C        0.11113    0.75897    0.76215    1.000
    C595     C        0.81433    0.64217    0.62560    1.000
    C596     C        0.88963    0.68487    0.61489    1.000
    C597     C        0.15613    0.76987    0.76225    1.000
    C598     C        0.08213    0.73547    0.77302    1.000
    H397     H        0.79273    0.64317    0.63127    1.000
    C599     C        0.80023    0.60637    0.61683    1.000
    C600     C        0.87463    0.64977    0.60658    1.000
    C601     C        0.93643    0.72287    0.61247    1.000
    C602     C        0.17033    0.74827    0.77167    1.000
    H398     H        0.17743    0.79097    0.75627    1.000
    C603     C        0.09483    0.71407    0.78188    1.000
    C604     C        0.03353    0.72327    0.77482    1.000
    H399     H        0.77133    0.57877    0.61777    1.000
    C605     C        0.83043    0.61227    0.60636    1.000
    C606     C        0.91273    0.65807    0.59693    1.000
    H400     H        0.94643    0.74847    0.61877    1.000
    C607     C        0.93813    0.73767    0.60017    1.000
    C608     C        0.96443    0.70017    0.61317    1.000
    C609     C        0.13763    0.72117    0.78207    1.000
    H401     H        0.20003    0.75127    0.77127    1.000
    C610     C        0.06193    0.68407    0.79104    1.000
    H402     H        0.02303    0.73797    0.76837    1.000
    C611     C        0.00513    0.67457    0.77522    1.000
    C612     C        0.03503    0.74157    0.78858    1.000
    O115     O        0.81923    0.58007    0.59761    1.000
    H403     H        0.90303    0.63287    0.59047    1.000
    C613     C        0.92473    0.70487    0.59117    1.000
    C614     C        0.95323    0.66647    0.60427    1.000
    C615     C        0.95243    0.78207    0.59607    1.000
    C616     C        0.00243    0.71247    0.62117    1.000
    O116     O        0.15763    0.70407    0.79085    1.000
    H404     H        0.07333    0.66787    0.79667    1.000
    C617     C        0.01953    0.65297    0.78393    1.000
    C618     C        0.05163    0.71897    0.79805    1.000
    C619     C        0.96543    0.64657    0.76804    1.000
    C620     C        0.02043    0.77147    0.79231    1.000
    C621     C        0.77783    0.54667    0.59672    1.000
    C622     C        0.92473    0.71737    0.57717    1.000
    C623     C        0.97253    0.64297    0.60250    1.000
    C624     C        0.94733    0.78897    0.58067    1.000
    H405     H        0.96463    0.80737    0.60177    1.000
    C625     C        0.02373    0.68847    0.62027    1.000
    H406     H        0.01233    0.73717    0.62707    1.000
    C626     C        0.20453    0.72217    0.79224    1.000
    C627     C        0.99643    0.60807    0.78527    1.000
    C628     C        0.05203    0.72987    0.81045    1.000
    H407     H        0.95433    0.66117    0.76247    1.000
    C629     C        0.94193    0.59997    0.76857    1.000
    H408     H        0.01003    0.78547    0.78637    1.000
    C630     C        0.02163    0.78057    0.80531    1.000
    H409     H        0.75733    0.55977    0.59557    1.000
    H410     H        0.76943    0.52987    0.60487    1.000
    C631     C        0.76803    0.51237    0.58636    1.000
    H411     H        0.91583    0.69417    0.57087    1.000
    C632     C        0.93713    0.76087    0.57367    1.000
    H412     H        0.96053    0.61887    0.59637    1.000
    C633     C        0.01313    0.65277    0.60967    1.000
    H413     H        0.95353    0.81837    0.57777    1.000
    H414     H        0.04653    0.69337    0.62637    1.000
    H415     H        0.22033    0.75627    0.79267    1.000
    H416     H        0.21713    0.71347    0.78497    1.000
    C634     C        0.21173    0.70327    0.80397    1.000
    C635     C        0.95703    0.58227    0.77787    1.000
    H417     H        0.00643    0.59327    0.79107    1.000
    C636     C        0.04083    0.76097    0.81418    1.000
    H418     H        0.06053    0.71487    0.81667    1.000
    H419     H        0.91733    0.58127    0.76297    1.000
    H420     H        0.00993    0.79937    0.80837    1.000
    C637     C        0.80083    0.52387    0.57709    1.000
    C638     C        0.72763    0.46877    0.58520    1.000
    H421     H        0.93703    0.76747    0.56497    1.000
    H422     H        0.03123    0.63867    0.60807    1.000
    C639     C        0.25763    0.71397    0.80787    1.000
    C640     C        0.17953    0.68147    0.81247    1.000
    H423     H        0.93933    0.55007    0.77947    1.000
    H424     H        0.04543    0.77067    0.82277    1.000
    H425     H        0.82853    0.55267    0.57767    1.000
    C641     C        0.79543    0.49527    0.56676    1.000
    C642     C        0.72313    0.44187    0.57505    1.000
    H426     H        0.70403    0.45837    0.59147    1.000
    H427     H        0.28403    0.73087    0.80267    1.000
    C643     C        0.26033    0.69767    0.81995    1.000
    C644     C        0.18443    0.65937    0.82446    1.000
    H428     H        0.15043    0.67927    0.81107    1.000
    H429     H        0.81823    0.50487    0.56037    1.000
    C645     C        0.75463    0.45137    0.56626    1.000
    H430     H        0.69473    0.41377    0.57417    1.000
    H431     H        0.29073    0.70687    0.82267    1.000
    C646     C        0.22883    0.67247    0.82784    1.000
    H432     H        0.15863    0.63797    0.82927    1.000
    C647     C        0.74953    0.41937    0.55587    1.000
    C648     C        0.23633    0.65127    0.83857    1.000
    O117     O        0.27643    0.67327    0.84246    1.000
    Zn19     Zn       0.59879    0.22102    0.53962    1.000
    O118     O        0.61830    0.27780    0.53097    1.000
    O119     O        0.58150    0.17430    0.52634    1.000
    O120     O        0.54490    0.20360    0.54914    1.000
    O121     O        0.64060    0.21600    0.55005    1.000
    Zn20     Zn       0.55830    0.26090    0.52340    1.000
    C649     C        0.55870    0.17770    0.51729    1.000
    C650     C        0.51350    0.21430    0.54567    1.000
    O122     O        0.54410    0.20420    0.51466    1.000
    O123     O        0.51450    0.24030    0.53682    1.000
    O124     O        0.53910    0.29110    0.51148    1.000
    O125     O        0.61210    0.32070    0.55389    1.000
    C651     C        0.54920    0.14060    0.50707    1.000
    C652     C        0.47190    0.19530    0.55462    1.000
    C653     C        0.52510    0.13820    0.49556    1.000
    C654     C        0.56180    0.10850    0.50822    1.000
    C655     C        0.46640    0.16700    0.56569    1.000
    C656     C        0.43430    0.19880    0.55127    1.000
    C657     C        0.51640    0.10580    0.48717    1.000
    H433     H        0.51550    0.16000    0.49400    1.000
    H434     H        0.57810    0.10920    0.51570    1.000
    C658     C        0.55300    0.07440    0.49940    1.000
    C659     C        0.42690    0.14820    0.57317    1.000
    H435     H        0.49060    0.16120    0.56790    1.000
    H436     H        0.43400    0.21280    0.54350    1.000
    C660     C        0.39500    0.18120    0.55963    1.000
    C661     C        0.53090    0.07320    0.48817    1.000
    H437     H        0.49890    0.10430    0.47990    1.000
    H438     H        0.56200    0.05210    0.50100    1.000
    C662     C        0.39210    0.15650    0.57022    1.000
    H439     H        0.42420    0.12970    0.58030    1.000
    H440     H        0.37060    0.18690    0.55770    1.000
    C663     C        0.52490    0.03970    0.47818    1.000
    C664     C        0.35020    0.14120    0.57836    1.000
    H441     H        0.50590    0.00790    0.48140    1.000
    H442     H        0.55540    0.04410    0.47570    1.000
    O126     O        0.50350    0.04610    0.46774    1.000
    H443     H        0.32190    0.12430    0.57320    1.000
    H444     H        0.35040    0.16830    0.58220    1.000
    O127     O        0.35110    0.11250    0.58787    1.000
    C665     C        0.48230    0.00970    0.45921    1.000
    C666     C        0.31450    0.09230    0.59548    1.000
    C667     C        0.49450    0.97550    0.45893    1.000
    C668     C        0.46190    0.01820    0.44822    1.000
    C669     C        0.28040    0.10320    0.59558    1.000
    C670     C        0.32000    0.06880    0.60635    1.000
    H445     H        0.51710    0.97650    0.46460    1.000
    C671     C        0.47280    0.93970    0.45016    1.000
    C672     C        0.44180    0.98310    0.43991    1.000
    C673     C        0.45310    0.05620    0.44580    1.000
    C674     C        0.24460    0.08160    0.60500    1.000
    H446     H        0.28020    0.12430    0.58960    1.000
    C675     C        0.28590    0.04740    0.61521    1.000
    C676     C        0.35640    0.05660    0.60815    1.000
    H447     H        0.47410    0.91210    0.45110    1.000
    C677     C        0.44850    0.94560    0.43969    1.000
    C678     C        0.41200    0.99140    0.43026    1.000
    H448     H        0.46870    0.08180    0.45210    1.000
    C679     C        0.46620    0.07100    0.43350    1.000
    C680     C        0.40240    0.03350    0.44650    1.000
    C681     C        0.25020    0.05450    0.61540    1.000
    H449     H        0.21790    0.08460    0.60460    1.000
    C682     C        0.28880    0.01740    0.62437    1.000
    H450     H        0.38160    0.07130    0.60170    1.000
    C683     C        0.33610    0.00790    0.60855    1.000
    C684     C        0.37320    0.07490    0.62191    1.000
    O128     O        0.42750    0.91340    0.43094    1.000
    H451     H        0.39650    0.96620    0.42380    1.000
    C685     C        0.44680    0.03820    0.42450    1.000
    C686     C        0.37990    0.99980    0.43760    1.000
    C687     C        0.49630    0.11540    0.42940    1.000
    C688     C        0.37670    0.04580    0.45450    1.000
    O129     O        0.21310    0.03740    0.62418    1.000
    H452     H        0.26120    0.00120    0.63000    1.000
    C689     C        0.30010    0.98630    0.61726    1.000
    C690     C        0.33400    0.05230    0.63138    1.000
    C691     C        0.34780    0.97990    0.60137    1.000
    C692     C        0.41770    0.10480    0.62564    1.000
    C693     C        0.43550    0.88000    0.43005    1.000
    C694     C        0.45930    0.05070    0.41050    1.000
    C695     C        0.33710    0.97630    0.43583    1.000
    C696     C        0.50830    0.12230    0.41400    1.000
    H453     H        0.50940    0.14070    0.43510    1.000
    C697     C        0.33140    0.02180    0.45360    1.000
    H454     H        0.39150    0.07050    0.46040    1.000
    C698     C        0.18430    0.05550    0.62557    1.000
    C699     C        0.27830    0.94140    0.61860    1.000
    C700     C        0.34450    0.06320    0.64378    1.000
    H455     H        0.37350    0.99450    0.59580    1.000
    C701     C        0.32470    0.93330    0.60190    1.000
    H456     H        0.44210    0.11880    0.61970    1.000
    C702     C        0.42560    0.11390    0.63864    1.000
    H457     H        0.46910    0.89310    0.42890    1.000
    H458     H        0.42710    0.86320    0.43820    1.000
    C703     C        0.41100    0.84570    0.41969    1.000
    H459     H        0.44500    0.02750    0.40420    1.000
    C704     C        0.49040    0.09420    0.40700    1.000
    H460     H        0.32500    0.95220    0.42970    1.000
    C705     C        0.30630    0.98610    0.44300    1.000
    H461     H        0.53150    0.15170    0.41110    1.000
    H462     H        0.31350    0.02670    0.45970    1.000
    H463     H        0.20260    0.08960    0.62600    1.000
    H464     H        0.16300    0.04680    0.61830    1.000
    C706     C        0.15820    0.03660    0.63730    1.000
    C707     C        0.29190    0.91560    0.61120    1.000
    H465     H        0.25350    0.92660    0.62440    1.000
    C708     C        0.38680    0.09430    0.64751    1.000
    H466     H        0.32100    0.04820    0.65000    1.000
    H467     H        0.33060    0.91460    0.59630    1.000
    H468     H        0.45610    0.13270    0.64170    1.000
    C709     C        0.38970    0.85720    0.41042    1.000
    C710     C        0.40780    0.80210    0.41853    1.000
    H469     H        0.49710    0.10080    0.39830    1.000
    H470     H        0.27410    0.97200    0.44140    1.000
    C711     C        0.12300    0.04730    0.64120    1.000
    C712     C        0.16860    0.01480    0.64580    1.000
    H471     H        0.27740    0.88340    0.61280    1.000
    H472     H        0.39190    0.10400    0.65610    1.000
    H473     H        0.39080    0.88600    0.41100    1.000
    C713     C        0.36650    0.82860    0.40009    1.000
    C714     C        0.38540    0.77520    0.40838    1.000
    H474     H        0.42100    0.79170    0.42480    1.000
    H475     H        0.11350    0.06420    0.63600    1.000
    C715     C        0.10400    0.03100    0.65328    1.000
    C716     C        0.14160    0.99270    0.65779    1.000
    H476     H        0.19550    0.01260    0.64440    1.000
    H477     H        0.35330    0.83820    0.39370    1.000
    C717     C        0.36340    0.78470    0.39959    1.000
    H478     H        0.38570    0.74710    0.40750    1.000
    H479     H        0.08280    0.04020    0.65600    1.000
    C718     C        0.11030    0.00580    0.66117    1.000
    H480     H        0.14600    0.97130    0.66260    1.000
    C719     C        0.33650    0.75270    0.38920    1.000
    C720     C        0.08160    0.98460    0.67190    1.000
    O130     O        0.06350    0.00660    0.67579    1.000
    Zn21     Zn       0.26546    0.55435    0.87295    1.000
    O131     O        0.28497    0.61113    0.86430    1.000
    O132     O        0.24817    0.50763    0.85967    1.000
    O133     O        0.21157    0.53693    0.88247    1.000
    O134     O        0.30727    0.54933    0.88338    1.000
    Zn22     Zn       0.22497    0.59423    0.85673    1.000
    C721     C        0.22537    0.51103    0.85062    1.000
    C722     C        0.18017    0.54763    0.87900    1.000
    O135     O        0.21077    0.53753    0.84799    1.000
    O136     O        0.18117    0.57363    0.87015    1.000
    O137     O        0.20577    0.62443    0.84481    1.000
    O138     O        0.27877    0.65403    0.88722    1.000
    C723     C        0.21587    0.47393    0.84040    1.000
    C724     C        0.13857    0.52863    0.88795    1.000
    C725     C        0.19177    0.47153    0.82889    1.000
    C726     C        0.22847    0.44183    0.84155    1.000
    C727     C        0.13307    0.50033    0.89902    1.000
    C728     C        0.10097    0.53213    0.88460    1.000
    C729     C        0.18307    0.43913    0.82050    1.000
    H481     H        0.18217    0.49333    0.82733    1.000
    H482     H        0.24477    0.44253    0.84903    1.000
    C730     C        0.21967    0.40773    0.83273    1.000
    C731     C        0.09357    0.48153    0.90650    1.000
    H483     H        0.15727    0.49453    0.90123    1.000
    H484     H        0.10067    0.54613    0.87683    1.000
    C732     C        0.06167    0.51453    0.89296    1.000
    C733     C        0.19757    0.40653    0.82150    1.000
    H485     H        0.16557    0.43763    0.81323    1.000
    H486     H        0.22867    0.38543    0.83433    1.000
    C734     C        0.05877    0.48983    0.90355    1.000
    H487     H        0.09087    0.46303    0.91363    1.000
    H488     H        0.03727    0.52023    0.89103    1.000
    C735     C        0.19157    0.37303    0.81151    1.000
    C736     C        0.01687    0.47453    0.91169    1.000
    H489     H        0.17257    0.34123    0.81473    1.000
    H490     H        0.22207    0.37743    0.80903    1.000
    O139     O        0.17017    0.37943    0.80107    1.000
    H491     H        0.98857    0.45763    0.90653    1.000
    H492     H        0.01707    0.50163    0.91553    1.000
    O140     O        0.01777    0.44583    0.92120    1.000
    C737     C        0.14897    0.34303    0.79254    1.000
    C738     C        0.98117    0.42563    0.92881    1.000
    C739     C        0.16117    0.30883    0.79226    1.000
    C740     C        0.12857    0.35153    0.78155    1.000
    C741     C        0.94707    0.43653    0.92891    1.000
    C742     C        0.98667    0.40213    0.93968    1.000
    H493     H        0.18377    0.30983    0.79793    1.000
    C743     C        0.13947    0.27303    0.78349    1.000
    C744     C        0.10847    0.31643    0.77324    1.000
    C745     C        0.11977    0.38953    0.77913    1.000
    C746     C        0.91127    0.41493    0.93833    1.000
    H494     H        0.94687    0.45763    0.92293    1.000
    C747     C        0.95257    0.38073    0.94854    1.000
    C748     C        0.02307    0.38993    0.94148    1.000
    H495     H        0.14077    0.24543    0.78443    1.000
    C749     C        0.11517    0.27893    0.77302    1.000
    C750     C        0.07867    0.32473    0.76359    1.000
    H496     H        0.13537    0.41513    0.78543    1.000
    C751     C        0.13287    0.40433    0.76683    1.000
    C752     C        0.06907    0.36683    0.77983    1.000
    C753     C        0.91687    0.38783    0.94873    1.000
    H497     H        0.88457    0.41793    0.93793    1.000
    C754     C        0.95547    0.35073    0.95770    1.000
    H498     H        0.04827    0.40463    0.93503    1.000
    C755     C        0.00277    0.34123    0.94188    1.000
    C756     C        0.03987    0.40823    0.95524    1.000
    O141     O        0.09417    0.24673    0.76427    1.000
    H499     H        0.06317    0.29953    0.75713    1.000
    C757     C        0.11347    0.37153    0.75783    1.000
    C758     C        0.04657    0.33313    0.77093    1.000
    C759     C        0.16297    0.44873    0.76273    1.000
    C760     C        0.04337    0.37913    0.78783    1.000
    O142     O        0.87977    0.37073    0.95751    1.000
    H500     H        0.92787    0.33453    0.96333    1.000
    C761     C        0.96677    0.31963    0.95059    1.000
    C762     C        0.00067    0.38563    0.96471    1.000
    C763     C        0.01447    0.31323    0.93470    1.000
    C764     C        0.08437    0.43813    0.95897    1.000
    C765     C        0.10217    0.21333    0.76338    1.000
    C766     C        0.12597    0.38403    0.74383    1.000
    C767     C        0.00377    0.30963    0.76916    1.000
    C768     C        0.17497    0.45563    0.74733    1.000
    H501     H        0.17607    0.47403    0.76843    1.000
    C769     C        0.99807    0.35513    0.78693    1.000
    H502     H        0.05817    0.40383    0.79373    1.000
    C770     C        0.85097    0.38883    0.95890    1.000
    C771     C        0.94497    0.27473    0.95193    1.000
    C772     C        0.01117    0.39653    0.97711    1.000
    H503     H        0.04017    0.32783    0.92913    1.000
    C773     C        0.99137    0.26663    0.93523    1.000
    H504     H        0.10877    0.45213    0.95303    1.000
    C774     C        0.09227    0.44723    0.97197    1.000
    H505     H        0.13577    0.22643    0.76223    1.000
    H506     H        0.09377    0.19653    0.77153    1.000
    C775     C        0.07767    0.17903    0.75302    1.000
    H507     H        0.11167    0.36083    0.73753    1.000
    C776     C        0.15707    0.42753    0.74033    1.000
    H508     H        0.99167    0.28553    0.76303    1.000
    C777     C        0.97297    0.31943    0.77633    1.000
    H509     H        0.19817    0.48503    0.74443    1.000
    H510     H        0.98017    0.36003    0.79303    1.000
    H511     H        0.86927    0.42293    0.95933    1.000
    H512     H        0.82967    0.38013    0.95163    1.000
    C778     C        0.82487    0.36993    0.97063    1.000
    C779     C        0.95857    0.24893    0.94453    1.000
    H513     H        0.92017    0.25993    0.95773    1.000
    C780     C        0.05347    0.42763    0.98084    1.000
    H514     H        0.98767    0.38153    0.98333    1.000
    H515     H        0.99727    0.24793    0.92963    1.000
    H516     H        0.12277    0.46603    0.97503    1.000
    C781     C        0.05637    0.19053    0.74375    1.000
    C782     C        0.07447    0.13543    0.75186    1.000
    H517     H        0.16377    0.43413    0.73163    1.000
    H518     H        0.94077    0.30533    0.77473    1.000
    C783     C        0.78967    0.38063    0.97453    1.000
    C784     C        0.83527    0.34813    0.97913    1.000
    H519     H        0.94407    0.21673    0.94613    1.000
    H520     H        0.05857    0.43733    0.98943    1.000
    H521     H        0.05747    0.21933    0.74433    1.000
    C785     C        0.03317    0.16193    0.73342    1.000
    C786     C        0.05207    0.10853    0.74171    1.000
    H522     H        0.08767    0.12503    0.75813    1.000
    H523     H        0.78017    0.39753    0.96933    1.000
    C787     C        0.77067    0.36433    0.98661    1.000
    C788     C        0.80827    0.32603    0.99112    1.000
    H524     H        0.86217    0.34593    0.97773    1.000
    H525     H        0.01997    0.17153    0.72703    1.000
    C789     C        0.03007    0.11803    0.73292    1.000
    H526     H        0.05237    0.08043    0.74083    1.000
    H527     H        0.74947    0.37353    0.98933    1.000
    C790     C        0.77697    0.33913    0.99450    1.000
    H528     H        0.81267    0.30463    0.99593    1.000
    C791     C        0.00317    0.08603    0.72253    1.000
    C792     C        0.74827    0.31793    0.00523    1.000
    O143     O        0.73017    0.33993    0.00912    1.000
    Zn23     Zn       0.93212    0.88769    0.20629    1.000
    O144     O        0.95163    0.94447    0.19764    1.000
    O145     O        0.91483    0.84097    0.19301    1.000
    O146     O        0.87823    0.87027    0.21581    1.000
    O147     O        0.97393    0.88267    0.21672    1.000
    Zn24     Zn       0.89163    0.92757    0.19007    1.000
    C793     C        0.89203    0.84437    0.18396    1.000
    C794     C        0.84683    0.88097    0.21234    1.000
    O148     O        0.87743    0.87087    0.18133    1.000
    O149     O        0.84783    0.90697    0.20349    1.000
    O150     O        0.87243    0.95777    0.17815    1.000
    O151     O        0.94543    0.98737    0.22056    1.000
    C795     C        0.88253    0.80727    0.17374    1.000
    C796     C        0.80523    0.86197    0.22129    1.000
    C797     C        0.85843    0.80487    0.16223    1.000
    C798     C        0.89513    0.77517    0.17489    1.000
    C799     C        0.79973    0.83367    0.23236    1.000
    C800     C        0.76763    0.86547    0.21794    1.000
    C801     C        0.84973    0.77247    0.15384    1.000
    H529     H        0.84883    0.82667    0.16067    1.000
    H530     H        0.91143    0.77587    0.18237    1.000
    C802     C        0.88633    0.74107    0.16607    1.000
    C803     C        0.76023    0.81487    0.23984    1.000
    H531     H        0.82393    0.82787    0.23457    1.000
    H532     H        0.76733    0.87947    0.21017    1.000
    C804     C        0.72833    0.84787    0.22630    1.000
    C805     C        0.86423    0.73987    0.15484    1.000
    H533     H        0.83223    0.77097    0.14657    1.000
    H534     H        0.89533    0.71877    0.16767    1.000
    C806     C        0.72543    0.82317    0.23689    1.000
    H535     H        0.75753    0.79637    0.24697    1.000
    H536     H        0.70393    0.85357    0.22437    1.000
    C807     C        0.85823    0.70637    0.14485    1.000
    C808     C        0.68353    0.80787    0.24503    1.000
    H537     H        0.83923    0.67457    0.14807    1.000
    H538     H        0.88873    0.71077    0.14237    1.000
    O152     O        0.83683    0.71277    0.13441    1.000
    H539     H        0.65523    0.79097    0.23987    1.000
    H540     H        0.68373    0.83497    0.24887    1.000
    O153     O        0.68443    0.77917    0.25454    1.000
    C809     C        0.81563    0.67637    0.12588    1.000
    C810     C        0.64783    0.75897    0.26215    1.000
    C811     C        0.82783    0.64217    0.12560    1.000
    C812     C        0.79523    0.68487    0.11489    1.000
    C813     C        0.61373    0.76987    0.26225    1.000
    C814     C        0.65333    0.73547    0.27302    1.000
    H541     H        0.85043    0.64317    0.13127    1.000
    C815     C        0.80613    0.60637    0.11683    1.000
    C816     C        0.77513    0.64977    0.10658    1.000
    C817     C        0.78643    0.72287    0.11247    1.000
    C818     C        0.57793    0.74827    0.27167    1.000
    H542     H        0.61353    0.79097    0.25627    1.000
    C819     C        0.61923    0.71407    0.28188    1.000
    C820     C        0.68973    0.72327    0.27482    1.000
    H543     H        0.80743    0.57877    0.11777    1.000
    C821     C        0.78183    0.61227    0.10636    1.000
    C822     C        0.74533    0.65807    0.09693    1.000
    H544     H        0.80203    0.74847    0.11877    1.000
    C823     C        0.79953    0.73767    0.10017    1.000
    C824     C        0.73573    0.70017    0.11317    1.000
    C825     C        0.58353    0.72117    0.28207    1.000
    H545     H        0.55123    0.75127    0.27127    1.000
    C826     C        0.62213    0.68407    0.29104    1.000
    H546     H        0.71493    0.73797    0.26837    1.000
    C827     C        0.66943    0.67457    0.27522    1.000
    C828     C        0.70653    0.74157    0.28858    1.000
    O154     O        0.76083    0.58007    0.09761    1.000
    H547     H        0.72983    0.63287    0.09047    1.000
    C829     C        0.78013    0.70487    0.09117    1.000
    C830     C        0.71323    0.66647    0.10427    1.000
    C831     C        0.82963    0.78207    0.09607    1.000
    C832     C        0.71003    0.71247    0.12117    1.000
    O155     O        0.54643    0.70407    0.29085    1.000
    H548     H        0.59453    0.66787    0.29667    1.000
    C833     C        0.63343    0.65297    0.28393    1.000
    C834     C        0.66733    0.71897    0.29805    1.000
    C835     C        0.68113    0.64657    0.26804    1.000
    C836     C        0.75103    0.77147    0.29231    1.000
    C837     C        0.76883    0.54667    0.09672    1.000
    C838     C        0.79263    0.71737    0.07717    1.000
    C839     C        0.67043    0.64297    0.10250    1.000
    C840     C        0.84163    0.78897    0.08067    1.000
    H549     H        0.84273    0.80737    0.10177    1.000
    C841     C        0.66473    0.68847    0.12027    1.000
    H550     H        0.72483    0.73717    0.12707    1.000
    C842     C        0.51763    0.72217    0.29224    1.000
    C843     C        0.61163    0.60807    0.28527    1.000
    C844     C        0.67783    0.72987    0.31045    1.000
    H551     H        0.70683    0.66117    0.26247    1.000
    C845     C        0.65803    0.59997    0.26857    1.000
    H552     H        0.77543    0.78547    0.28637    1.000
    C846     C        0.75893    0.78057    0.30531    1.000
    H553     H        0.80243    0.55977    0.09557    1.000
    H554     H        0.76043    0.52987    0.10487    1.000
    C847     C        0.74433    0.51237    0.08636    1.000
    H555     H        0.77833    0.69417    0.07087    1.000
    C848     C        0.82373    0.76087    0.07367    1.000
    H556     H        0.65833    0.61887    0.09637    1.000
    C849     C        0.63963    0.65277    0.10967    1.000
    H557     H        0.86483    0.81837    0.07777    1.000
    H558     H        0.64683    0.69337    0.12637    1.000
    H559     H        0.53593    0.75627    0.29267    1.000
    H560     H        0.49633    0.71347    0.28497    1.000
    C850     C        0.49153    0.70327    0.30397    1.000
    C851     C        0.62523    0.58227    0.27787    1.000
    H561     H        0.58683    0.59327    0.29107    1.000
    C852     C        0.72013    0.76097    0.31418    1.000
    H562     H        0.65433    0.71487    0.31667    1.000
    H563     H        0.66393    0.58127    0.26297    1.000
    H564     H        0.78943    0.79937    0.30837    1.000
    C853     C        0.72303    0.52387    0.07709    1.000
    C854     C        0.74113    0.46877    0.08520    1.000
    H565     H        0.83043    0.76747    0.06497    1.000
    H566     H        0.60743    0.63867    0.10807    1.000
    C855     C        0.45633    0.71397    0.30787    1.000
    C856     C        0.50193    0.68147    0.31247    1.000
    H567     H        0.61073    0.55007    0.27947    1.000
    H568     H        0.72523    0.77067    0.32277    1.000
    H569     H        0.72413    0.55267    0.07767    1.000
    C857     C        0.69983    0.49527    0.06676    1.000
    C858     C        0.71873    0.44187    0.07505    1.000
    H570     H        0.75433    0.45837    0.09147    1.000
    H571     H        0.44683    0.73087    0.30267    1.000
    C859     C        0.43733    0.69767    0.31995    1.000
    C860     C        0.47493    0.65937    0.32446    1.000
    H572     H        0.52883    0.67927    0.31107    1.000
    H573     H        0.68663    0.50487    0.06037    1.000
    C861     C        0.69673    0.45137    0.06626    1.000
    H574     H        0.71903    0.41377    0.07417    1.000
    H575     H        0.41613    0.70687    0.32267    1.000
    C862     C        0.44363    0.67247    0.32784    1.000
    H576     H        0.47933    0.63797    0.32927    1.000
    C863     C        0.66983    0.41937    0.05587    1.000
    C864     C        0.41493    0.65127    0.33857    1.000
    O156     O        0.39683    0.67327    0.34246    1.000
    Zn25     Zn       0.62223    0.40121    0.53962    1.000
    O157     O        0.65950    0.38170    0.53097    1.000
    O158     O        0.59280    0.41850    0.52634    1.000
    O159     O        0.65870    0.45510    0.54914    1.000
    O160     O        0.57540    0.35940    0.55005    1.000
    Zn26     Zn       0.70260    0.44170    0.52340    1.000
    C865     C        0.61900    0.44130    0.51729    1.000
    C866     C        0.70080    0.48650    0.54567    1.000
    O161     O        0.66010    0.45590    0.51466    1.000
    O162     O        0.72580    0.48550    0.53682    1.000
    O163     O        0.75200    0.46090    0.51148    1.000
    O164     O        0.70860    0.38790    0.55389    1.000
    C867     C        0.59140    0.45080    0.50707    1.000
    C868     C        0.72340    0.52810    0.55462    1.000
    C869     C        0.61310    0.47490    0.49556    1.000
    C870     C        0.54670    0.43820    0.50822    1.000
    C871     C        0.70060    0.53360    0.56569    1.000
    C872     C        0.76450    0.56570    0.55127    1.000
    C873     C        0.58940    0.48360    0.48717    1.000
    H577     H        0.64450    0.48450    0.49400    1.000
    H578     H        0.53110    0.42190    0.51570    1.000
    C874     C        0.52140    0.44700    0.49940    1.000
    C875     C        0.72130    0.57310    0.57317    1.000
    H579     H        0.67060    0.50940    0.56790    1.000
    H580     H        0.77880    0.56600    0.54350    1.000
    C876     C        0.78620    0.60500    0.55963    1.000
    C877     C        0.54230    0.46910    0.48817    1.000
    H581     H        0.60540    0.50110    0.47990    1.000
    H582     H        0.49010    0.43800    0.50100    1.000
    C878     C        0.76440    0.60790    0.57022    1.000
    H583     H        0.70550    0.57580    0.58030    1.000
    H584     H        0.81630    0.62940    0.55770    1.000
    C879     C        0.51480    0.47510    0.47818    1.000
    C880     C        0.79100    0.64980    0.57836    1.000
    H585     H        0.50200    0.49410    0.48140    1.000
    H586     H        0.48870    0.44460    0.47570    1.000
    O165     O        0.54260    0.49650    0.46774    1.000
    H587     H        0.80240    0.67810    0.57320    1.000
    H588     H        0.81790    0.64960    0.58220    1.000
    O166     O        0.76140    0.64890    0.58787    1.000
    C881     C        0.52740    0.51770    0.45921    1.000
    C882     C        0.77780    0.68550    0.59548    1.000
    C883     C        0.48100    0.50550    0.45893    1.000
    C884     C        0.55630    0.53810    0.44822    1.000
    C885     C        0.82280    0.71960    0.59558    1.000
    C886     C        0.74880    0.68000    0.60635    1.000
    H589     H        0.45940    0.48290    0.46460    1.000
    C887     C        0.46690    0.52720    0.45016    1.000
    C888     C        0.54130    0.55820    0.43991    1.000
    C889     C        0.60310    0.54690    0.44580    1.000
    C890     C        0.83700    0.75540    0.60500    1.000
    H590     H        0.84410    0.71980    0.58960    1.000
    C891     C        0.76150    0.71410    0.61521    1.000
    C892     C        0.70020    0.64360    0.60815    1.000
    H591     H        0.43800    0.52590    0.45110    1.000
    C893     C        0.49710    0.55150    0.43969    1.000
    C894     C        0.57940    0.58800    0.43026    1.000
    H592     H        0.61310    0.53130    0.45210    1.000
    C895     C        0.60480    0.53380    0.43350    1.000
    C896     C        0.63110    0.59760    0.44650    1.000
    C897     C        0.80430    0.74980    0.61540    1.000
    H593     H        0.86670    0.78210    0.60460    1.000
    C898     C        0.72860    0.71120    0.62437    1.000
    H594     H        0.68970    0.61840    0.60170    1.000
    C899     C        0.67180    0.66390    0.60855    1.000
    C900     C        0.70170    0.62680    0.62191    1.000
    O167     O        0.48590    0.57250    0.43094    1.000
    H595     H        0.56970    0.60350    0.42380    1.000
    C901     C        0.59140    0.55320    0.42450    1.000
    C902     C        0.61990    0.62010    0.43760    1.000
    C903     C        0.61910    0.50370    0.42940    1.000
    C904     C        0.66910    0.62330    0.45450    1.000
    O168     O        0.82430    0.78690    0.62418    1.000
    H596     H        0.74000    0.73880    0.63000    1.000
    C905     C        0.68620    0.69990    0.61726    1.000
    C906     C        0.71830    0.66600    0.63138    1.000
    C907     C        0.63210    0.65220    0.60137    1.000
    C908     C        0.68710    0.58230    0.62564    1.000
    C909     C        0.44450    0.56450    0.43005    1.000
    C910     C        0.59140    0.54070    0.41050    1.000
    C911     C        0.63920    0.66290    0.43583    1.000
    C912     C        0.61400    0.49170    0.41400    1.000
    H597     H        0.63130    0.49060    0.43510    1.000
    C913     C        0.69040    0.66860    0.45360    1.000
    H598     H        0.67900    0.60850    0.46040    1.000
    C914     C        0.87120    0.81570    0.62557    1.000
    C915     C        0.66310    0.72170    0.61860    1.000
    C916     C        0.71870    0.65550    0.64378    1.000
    H599     H        0.62100    0.62650    0.59580    1.000
    C917     C        0.60860    0.67530    0.60190    1.000
    H600     H        0.67670    0.55790    0.61970    1.000
    C918     C        0.68830    0.57440    0.63864    1.000
    H601     H        0.42400    0.53090    0.42890    1.000
    H602     H        0.43610    0.57290    0.43820    1.000
    C919     C        0.43470    0.58900    0.41969    1.000
    H603     H        0.58250    0.55500    0.40420    1.000
    C920     C        0.60380    0.50960    0.40700    1.000
    H604     H        0.62720    0.67500    0.42970    1.000
    C921     C        0.67980    0.69370    0.44300    1.000
    H605     H        0.62020    0.46850    0.41110    1.000
    H606     H        0.71320    0.68650    0.45970    1.000
    H607     H        0.88700    0.79740    0.62600    1.000
    H608     H        0.88380    0.83700    0.61830    1.000
    C922     C        0.87840    0.84180    0.63730    1.000
    C923     C        0.62370    0.70810    0.61120    1.000
    H609     H        0.67310    0.74650    0.62440    1.000
    C924     C        0.70750    0.61320    0.64751    1.000
    H610     H        0.72720    0.67900    0.65000    1.000
    H611     H        0.58400    0.66940    0.59630    1.000
    H612     H        0.67660    0.54390    0.64170    1.000
    C925     C        0.46750    0.61030    0.41042    1.000
    C926     C        0.39430    0.59220    0.41853    1.000
    H613     H        0.60370    0.50290    0.39830    1.000
    H614     H        0.69790    0.72590    0.44140    1.000
    C927     C        0.92430    0.87700    0.64120    1.000
    C928     C        0.84620    0.83140    0.64580    1.000
    H615     H        0.60600    0.72260    0.61280    1.000
    H616     H        0.71210    0.60810    0.65610    1.000
    H617     H        0.49520    0.60920    0.41100    1.000
    C929     C        0.46210    0.63350    0.40009    1.000
    C930     C        0.38980    0.61460    0.40838    1.000
    H618     H        0.37070    0.57900    0.42480    1.000
    H619     H        0.95070    0.88650    0.63600    1.000
    C931     C        0.92700    0.89600    0.65328    1.000
    C932     C        0.85110    0.85840    0.65779    1.000
    H620     H        0.81710    0.80450    0.64440    1.000
    H621     H        0.48490    0.64670    0.39370    1.000
    C933     C        0.42130    0.63660    0.39959    1.000
    H622     H        0.36140    0.61430    0.40750    1.000
    H623     H        0.95740    0.91720    0.65600    1.000
    C934     C        0.89550    0.88970    0.66117    1.000
    H624     H        0.82530    0.85400    0.66260    1.000
    C935     C        0.41620    0.66350    0.38920    1.000
    C936     C        0.90300    0.91840    0.67190    1.000
    O169     O        0.94310    0.93650    0.67579    1.000
    Zn27     Zn       0.28890    0.73454    0.87295    1.000
    O170     O        0.32617    0.71503    0.86430    1.000
    O171     O        0.25947    0.75183    0.85967    1.000
    O172     O        0.32537    0.78843    0.88247    1.000
    O173     O        0.24207    0.69273    0.88338    1.000
    Zn28     Zn       0.36927    0.77503    0.85673    1.000
    C937     C        0.28567    0.77463    0.85062    1.000
    C938     C        0.36747    0.81983    0.87900    1.000
    O174     O        0.32677    0.78923    0.84799    1.000
    O175     O        0.39247    0.81883    0.87015    1.000
    O176     O        0.41867    0.79423    0.84481    1.000
    O177     O        0.37527    0.72123    0.88722    1.000
    C939     C        0.25807    0.78413    0.84040    1.000
    C940     C        0.39007    0.86143    0.88795    1.000
    C941     C        0.27977    0.80823    0.82889    1.000
    C942     C        0.21337    0.77153    0.84155    1.000
    C943     C        0.36727    0.86693    0.89902    1.000
    C944     C        0.43117    0.89903    0.88460    1.000
    C945     C        0.25607    0.81693    0.82050    1.000
    H625     H        0.31117    0.81783    0.82733    1.000
    H626     H        0.19777    0.75523    0.84903    1.000
    C946     C        0.18807    0.78033    0.83273    1.000
    C947     C        0.38797    0.90643    0.90650    1.000
    H627     H        0.33727    0.84273    0.90123    1.000
    H628     H        0.44547    0.89933    0.87683    1.000
    C948     C        0.45287    0.93833    0.89296    1.000
    C949     C        0.20897    0.80243    0.82150    1.000
    H629     H        0.27207    0.83443    0.81323    1.000
    H630     H        0.15677    0.77133    0.83433    1.000
    C950     C        0.43107    0.94123    0.90355    1.000
    H631     H        0.37217    0.90913    0.91363    1.000
    H632     H        0.48297    0.96273    0.89103    1.000
    C951     C        0.18147    0.80843    0.81151    1.000
    C952     C        0.45767    0.98313    0.91169    1.000
    H633     H        0.16867    0.82743    0.81473    1.000
    H634     H        0.15537    0.77793    0.80903    1.000
    O178     O        0.20927    0.82983    0.80107    1.000
    H635     H        0.46907    0.01143    0.90653    1.000
    H636     H        0.48457    0.98293    0.91553    1.000
    O179     O        0.42807    0.98223    0.92120    1.000
    C953     C        0.19407    0.85103    0.79254    1.000
    C954     C        0.44447    0.01883    0.92881    1.000
    C955     C        0.14767    0.83883    0.79226    1.000
    C956     C        0.22297    0.87143    0.78155    1.000
    C957     C        0.48947    0.05293    0.92891    1.000
    C958     C        0.41547    0.01333    0.93968    1.000
    H637     H        0.12607    0.81623    0.79793    1.000
    C959     C        0.13357    0.86053    0.78349    1.000
    C960     C        0.20797    0.89153    0.77324    1.000
    C961     C        0.26977    0.88023    0.77913    1.000
    C962     C        0.50367    0.08873    0.93833    1.000
    H638     H        0.51077    0.05313    0.92293    1.000
    C963     C        0.42817    0.04743    0.94854    1.000
    C964     C        0.36687    0.97693    0.94148    1.000
    H639     H        0.10467    0.85923    0.78443    1.000
    C965     C        0.16377    0.88483    0.77302    1.000
    C966     C        0.24607    0.92133    0.76359    1.000
    H640     H        0.27977    0.86463    0.78543    1.000
    C967     C        0.27147    0.86713    0.76683    1.000
    C968     C        0.29777    0.93093    0.77983    1.000
    C969     C        0.47097    0.08313    0.94873    1.000
    H641     H        0.53337    0.11543    0.93793    1.000
    C970     C        0.39527    0.04453    0.95770    1.000
    H642     H        0.35637    0.95173    0.93503    1.000
    C971     C        0.33847    0.99723    0.94188    1.000
    C972     C        0.36837    0.96013    0.95524    1.000
    O180     O        0.15257    0.90583    0.76427    1.000
    H643     H        0.23637    0.93683    0.75713    1.000
    C973     C        0.25807    0.88653    0.75783    1.000
    C974     C        0.28657    0.95343    0.77093    1.000
    C975     C        0.28577    0.83703    0.76273    1.000
    C976     C        0.33577    0.95663    0.78783    1.000
    O181     O        0.49097    0.12023    0.95751    1.000
    H644     H        0.40667    0.07213    0.96333    1.000
    C977     C        0.35287    0.03323    0.95059    1.000
    C978     C        0.38497    0.99933    0.96471    1.000
    C979     C        0.29877    0.98553    0.93470    1.000
    C980     C        0.35377    0.91563    0.95897    1.000
    C981     C        0.11117    0.89783    0.76338    1.000
    C982     C        0.25807    0.87403    0.74383    1.000
    C983     C        0.30587    0.99623    0.76916    1.000
    C984     C        0.28067    0.82503    0.74733    1.000
    H645     H        0.29797    0.82393    0.76843    1.000
    C985     C        0.35707    0.00193    0.78693    1.000
    H646     H        0.34567    0.94183    0.79373    1.000
    C986     C        0.53787    0.14903    0.95890    1.000
    C987     C        0.32977    0.05503    0.95193    1.000
    C988     C        0.38537    0.98883    0.97711    1.000
    H647     H        0.28767    0.95983    0.92913    1.000
    C989     C        0.27527    0.00863    0.93523    1.000
    H648     H        0.34337    0.89123    0.95303    1.000
    C990     C        0.35497    0.90773    0.97197    1.000
    H649     H        0.09067    0.86423    0.76223    1.000
    H650     H        0.10277    0.90623    0.77153    1.000
    C991     C        0.10137    0.92233    0.75302    1.000
    H651     H        0.24917    0.88833    0.73753    1.000
    C992     C        0.27047    0.84293    0.74033    1.000
    H652     H        0.29387    0.00833    0.76303    1.000
    C993     C        0.34647    0.02703    0.77633    1.000
    H653     H        0.28687    0.80183    0.74443    1.000
    H654     H        0.37987    0.01983    0.79303    1.000
    H655     H        0.55367    0.13073    0.95933    1.000
    H656     H        0.55047    0.17033    0.95163    1.000
    C994     C        0.54507    0.17513    0.97063    1.000
    C995     C        0.29037    0.04143    0.94453    1.000
    H657     H        0.33977    0.07983    0.95773    1.000
    C996     C        0.37417    0.94653    0.98084    1.000
    H658     H        0.39387    0.01233    0.98333    1.000
    H659     H        0.25067    0.00273    0.92963    1.000
    H660     H        0.34327    0.87723    0.97503    1.000
    C997     C        0.13417    0.94363    0.74375    1.000
    C998     C        0.06097    0.92553    0.75186    1.000
    H661     H        0.27037    0.83623    0.73163    1.000
    H662     H        0.36457    0.05923    0.77473    1.000
    C999     C        0.59097    0.21033    0.97453    1.000
    C1000    C        0.51287    0.16473    0.97913    1.000
    H663     H        0.27267    0.05593    0.94613    1.000
    H664     H        0.37877    0.94143    0.98943    1.000
    H665     H        0.16187    0.94253    0.74433    1.000
    C1001    C        0.12877    0.96683    0.73342    1.000
    C1002    C        0.05647    0.94793    0.74171    1.000
    H666     H        0.03737    0.91233    0.75813    1.000
    H667     H        0.61737    0.21983    0.96933    1.000
    C1003    C        0.59367    0.22933    0.98661    1.000
    C1004    C        0.51777    0.19173    0.99112    1.000
    H668     H        0.48377    0.13783    0.97773    1.000
    H669     H        0.15157    0.98003    0.72703    1.000
    C1005    C        0.08797    0.96993    0.73292    1.000
    H670     H        0.02807    0.94763    0.74083    1.000
    H671     H        0.62407    0.25053    0.98933    1.000
    C1006    C        0.56217    0.22303    0.99450    1.000
    H672     H        0.49197    0.18733    0.99593    1.000
    C1007    C        0.08287    0.99683    0.72253    1.000
    C1008    C        0.56967    0.25173    0.00523    1.000
    O182     O        0.60977    0.26983    0.00912    1.000
    Zn29     Zn       0.95556    0.06788    0.20629    1.000
    O183     O        0.99283    0.04837    0.19764    1.000
    O184     O        0.92613    0.08517    0.19301    1.000
    O185     O        0.99203    0.12177    0.21581    1.000
    O186     O        0.90873    0.02607    0.21672    1.000
    Zn30     Zn       0.03593    0.10837    0.19007    1.000
    C1009    C        0.95233    0.10797    0.18396    1.000
    C1010    C        0.03413    0.15317    0.21234    1.000
    O187     O        0.99343    0.12257    0.18133    1.000
    O188     O        0.05913    0.15217    0.20349    1.000
    O189     O        0.08533    0.12757    0.17815    1.000
    O190     O        0.04193    0.05457    0.22056    1.000
    C1011    C        0.92473    0.11747    0.17374    1.000
    C1012    C        0.05673    0.19477    0.22129    1.000
    C1013    C        0.94643    0.14157    0.16223    1.000
    C1014    C        0.88003    0.10487    0.17489    1.000
    C1015    C        0.03393    0.20027    0.23236    1.000
    C1016    C        0.09783    0.23237    0.21794    1.000
    C1017    C        0.92273    0.15027    0.15384    1.000
    H673     H        0.97783    0.15117    0.16067    1.000
    H674     H        0.86443    0.08857    0.18237    1.000
    C1018    C        0.85473    0.11367    0.16607    1.000
    C1019    C        0.05463    0.23977    0.23984    1.000
    H675     H        0.00393    0.17607    0.23457    1.000
    H676     H        0.11213    0.23267    0.21017    1.000
    C1020    C        0.11953    0.27167    0.22630    1.000
    C1021    C        0.87563    0.13577    0.15484    1.000
    H677     H        0.93873    0.16777    0.14657    1.000
    H678     H        0.82343    0.10467    0.16767    1.000
    C1022    C        0.09773    0.27457    0.23689    1.000
    H679     H        0.03883    0.24247    0.24697    1.000
    H680     H        0.14963    0.29607    0.22437    1.000
    C1023    C        0.84813    0.14177    0.14485    1.000
    C1024    C        0.12433    0.31647    0.24503    1.000
    H681     H        0.83533    0.16077    0.14807    1.000
    H682     H        0.82203    0.11127    0.14237    1.000
    O191     O        0.87593    0.16317    0.13441    1.000
    H683     H        0.13573    0.34477    0.23987    1.000
    H684     H        0.15123    0.31627    0.24887    1.000
    O192     O        0.09473    0.31557    0.25454    1.000
    C1025    C        0.86073    0.18437    0.12588    1.000
    C1026    C        0.11113    0.35217    0.26215    1.000
    C1027    C        0.81433    0.17217    0.12560    1.000
    C1028    C        0.88963    0.20477    0.11489    1.000
    C1029    C        0.15613    0.38627    0.26225    1.000
    C1030    C        0.08213    0.34667    0.27302    1.000
    H685     H        0.79273    0.14957    0.13127    1.000
    C1031    C        0.80023    0.19387    0.11683    1.000
    C1032    C        0.87463    0.22487    0.10658    1.000
    C1033    C        0.93643    0.21357    0.11247    1.000
    C1034    C        0.17033    0.42207    0.27167    1.000
    H686     H        0.17743    0.38647    0.25627    1.000
    C1035    C        0.09483    0.38077    0.28188    1.000
    C1036    C        0.03353    0.31027    0.27482    1.000
    H687     H        0.77133    0.19257    0.11777    1.000
    C1037    C        0.83043    0.21817    0.10636    1.000
    C1038    C        0.91273    0.25467    0.09693    1.000
    H688     H        0.94643    0.19797    0.11877    1.000
    C1039    C        0.93813    0.20047    0.10017    1.000
    C1040    C        0.96443    0.26427    0.11317    1.000
    C1041    C        0.13763    0.41647    0.28207    1.000
    H689     H        0.20003    0.44877    0.27127    1.000
    C1042    C        0.06193    0.37787    0.29104    1.000
    H690     H        0.02303    0.28507    0.26837    1.000
    C1043    C        0.00513    0.33057    0.27522    1.000
    C1044    C        0.03503    0.29347    0.28858    1.000
    O193     O        0.81923    0.23917    0.09761    1.000
    H691     H        0.90303    0.27017    0.09047    1.000
    C1045    C        0.92473    0.21987    0.09117    1.000
    C1046    C        0.95323    0.28677    0.10427    1.000
    C1047    C        0.95243    0.17037    0.09607    1.000
    C1048    C        0.00243    0.28997    0.12117    1.000
    O194     O        0.15763    0.45357    0.29085    1.000
    H692     H        0.07333    0.40547    0.29667    1.000
    C1049    C        0.01953    0.36657    0.28393    1.000
    C1050    C        0.05163    0.33267    0.29805    1.000
    C1051    C        0.96543    0.31887    0.26804    1.000
    C1052    C        0.02043    0.24897    0.29231    1.000
    C1053    C        0.77783    0.23117    0.09672    1.000
    C1054    C        0.92473    0.20737    0.07717    1.000
    C1055    C        0.97253    0.32957    0.10250    1.000
    C1056    C        0.94733    0.15837    0.08067    1.000
    H693     H        0.96463    0.15727    0.10177    1.000
    C1057    C        0.02373    0.33527    0.12027    1.000
    H694     H        0.01233    0.27517    0.12707    1.000
    C1058    C        0.20453    0.48237    0.29224    1.000
    C1059    C        0.99643    0.38837    0.28527    1.000
    C1060    C        0.05203    0.32217    0.31045    1.000
    H695     H        0.95433    0.29317    0.26247    1.000
    C1061    C        0.94193    0.34197    0.26857    1.000
    H696     H        0.01003    0.22457    0.28637    1.000
    C1062    C        0.02163    0.24107    0.30531    1.000
    H697     H        0.75733    0.19757    0.09557    1.000
    H698     H        0.76943    0.23957    0.10487    1.000
    C1063    C        0.76803    0.25567    0.08636    1.000
    H699     H        0.91583    0.22167    0.07087    1.000
    C1064    C        0.93713    0.17627    0.07367    1.000
    H700     H        0.96053    0.34167    0.09637    1.000
    C1065    C        0.01313    0.36037    0.10967    1.000
    H701     H        0.95353    0.13517    0.07777    1.000
    H702     H        0.04653    0.35317    0.12637    1.000
    H703     H        0.22033    0.46407    0.29267    1.000
    H704     H        0.21713    0.50367    0.28497    1.000
    C1066    C        0.21173    0.50847    0.30397    1.000
    C1067    C        0.95703    0.37477    0.27787    1.000
    H705     H        0.00643    0.41317    0.29107    1.000
    C1068    C        0.04083    0.27987    0.31418    1.000
    H706     H        0.06053    0.34567    0.31667    1.000
    H707     H        0.91733    0.33607    0.26297    1.000
    H708     H        0.00993    0.21057    0.30837    1.000
    C1069    C        0.80083    0.27697    0.07709    1.000
    C1070    C        0.72763    0.25887    0.08520    1.000
    H709     H        0.93703    0.16957    0.06497    1.000
    H710     H        0.03123    0.39257    0.10807    1.000
    C1071    C        0.25763    0.54367    0.30787    1.000
    C1072    C        0.17953    0.49807    0.31247    1.000
    H711     H        0.93933    0.38927    0.27947    1.000
    H712     H        0.04543    0.27477    0.32277    1.000
    H713     H        0.82853    0.27587    0.07767    1.000
    C1073    C        0.79543    0.30017    0.06676    1.000
    C1074    C        0.72313    0.28127    0.07505    1.000
    H714     H        0.70403    0.24567    0.09147    1.000
    H715     H        0.28403    0.55317    0.30267    1.000
    C1075    C        0.26033    0.56267    0.31995    1.000
    C1076    C        0.18443    0.52507    0.32446    1.000
    H716     H        0.15043    0.47117    0.31107    1.000
    H717     H        0.81823    0.31337    0.06037    1.000
    C1077    C        0.75463    0.30327    0.06626    1.000
    H718     H        0.69473    0.28097    0.07417    1.000
    H719     H        0.29073    0.58387    0.32267    1.000
    C1078    C        0.22883    0.55637    0.32784    1.000
    H720     H        0.15863    0.52067    0.32927    1.000
    C1079    C        0.74953    0.33017    0.05587    1.000
    C1080    C        0.23633    0.58507    0.33857    1.000
    O195     O        0.27643    0.60317    0.34246    1.000
    Zn31     Zn       0.77898    0.37777    0.53962    1.000
    O196     O        0.72220    0.34050    0.53097    1.000
    O197     O        0.82570    0.40720    0.52634    1.000
    O198     O        0.79640    0.34130    0.54914    1.000
    O199     O        0.78400    0.42460    0.55005    1.000
    Zn32     Zn       0.73910    0.29740    0.52340    1.000
    C1081    C        0.82230    0.38100    0.51729    1.000
    C1082    C        0.78570    0.29920    0.54567    1.000
    O200     O        0.79580    0.33990    0.51466    1.000
    O201     O        0.75970    0.27420    0.53682    1.000
    O202     O        0.70890    0.24800    0.51148    1.000
    O203     O        0.67930    0.29140    0.55389    1.000
    C1083    C        0.85940    0.40860    0.50707    1.000
    C1084    C        0.80470    0.27660    0.55462    1.000
    C1085    C        0.86180    0.38690    0.49556    1.000
    C1086    C        0.89150    0.45330    0.50822    1.000
    C1087    C        0.83300    0.29940    0.56569    1.000
    C1088    C        0.80120    0.23550    0.55127    1.000
    C1089    C        0.89420    0.41060    0.48717    1.000
    H721     H        0.84000    0.35550    0.49400    1.000
    H722     H        0.89080    0.46890    0.51570    1.000
    C1090    C        0.92560    0.47860    0.49940    1.000
    C1091    C        0.85180    0.27870    0.57317    1.000
    H723     H        0.83880    0.32940    0.56790    1.000
    H724     H        0.78720    0.22120    0.54350    1.000
    C1092    C        0.81880    0.21380    0.55963    1.000
    C1093    C        0.92680    0.45770    0.48817    1.000
    H725     H        0.89570    0.39460    0.47990    1.000
    H726     H        0.94790    0.50990    0.50100    1.000
    C1094    C        0.84350    0.23560    0.57022    1.000
    H727     H        0.87030    0.29450    0.58030    1.000
    H728     H        0.81310    0.18370    0.55770    1.000
    C1095    C        0.96030    0.48520    0.47818    1.000
    C1096    C        0.85880    0.20900    0.57836    1.000
    H729     H        0.99210    0.49800    0.48140    1.000
    H730     H        0.95590    0.51130    0.47570    1.000
    O204     O        0.95390    0.45740    0.46774    1.000
    H731     H        0.87570    0.19760    0.57320    1.000
    H732     H        0.83170    0.18210    0.58220    1.000
    O205     O        0.88750    0.23860    0.58787    1.000
    C1097    C        0.99030    0.47260    0.45921    1.000
    C1098    C        0.90770    0.22220    0.59548    1.000
    C1099    C        0.02450    0.51900    0.45893    1.000
    C1100    C        0.98180    0.44370    0.44822    1.000
    C1101    C        0.89680    0.17720    0.59558    1.000
    C1102    C        0.93120    0.25120    0.60635    1.000
    H733     H        0.02350    0.54060    0.46460    1.000
    C1103    C        0.06030    0.53310    0.45016    1.000
    C1104    C        0.01690    0.45870    0.43991    1.000
    C1105    C        0.94380    0.39690    0.44580    1.000
    C1106    C        0.91840    0.16300    0.60500    1.000
    H734     H        0.87570    0.15590    0.58960    1.000
    C1107    C        0.95260    0.23850    0.61521    1.000
    C1108    C        0.94340    0.29980    0.60815    1.000
    H735     H        0.08790    0.56200    0.45110    1.000
    C1109    C        0.05440    0.50290    0.43969    1.000
    C1110    C        0.00860    0.42060    0.43026    1.000
    H736     H        0.91820    0.38690    0.45210    1.000
    C1111    C        0.92900    0.39520    0.43350    1.000
    C1112    C        0.96650    0.36890    0.44650    1.000
    C1113    C        0.94550    0.19570    0.61540    1.000
    H737     H        0.91540    0.13330    0.60460    1.000
    C1114    C        0.98260    0.27140    0.62437    1.000
    H738     H        0.92870    0.31030    0.60170    1.000
    C1115    C        0.99210    0.32820    0.60855    1.000
    C1116    C        0.92510    0.29830    0.62191    1.000
    O206     O        0.08660    0.51410    0.43094    1.000
    H739     H        0.03380    0.43030    0.42380    1.000
    C1117    C        0.96180    0.40860    0.42450    1.000
    C1118    C        0.00020    0.38010    0.43760    1.000
    C1119    C        0.88460    0.38090    0.42940    1.000
    C1120    C        0.95420    0.33090    0.45450    1.000
    O207     O        0.96260    0.17570    0.62418    1.000
    H740     H        0.99880    0.26000    0.63000    1.000
    C1121    C        0.01370    0.31380    0.61726    1.000
    C1122    C        0.94770    0.28170    0.63138    1.000
    C1123    C        0.02010    0.36790    0.60137    1.000
    C1124    C        0.89520    0.31290    0.62564    1.000
    C1125    C        0.12000    0.55550    0.43005    1.000
    C1126    C        0.94930    0.40860    0.41050    1.000
    C1127    C        0.02370    0.36080    0.43583    1.000
    C1128    C        0.87770    0.38600    0.41400    1.000
    H741     H        0.85930    0.36870    0.43510    1.000
    C1129    C        0.97820    0.30960    0.45360    1.000
    H742     H        0.92950    0.32100    0.46040    1.000
    C1130    C        0.94450    0.12880    0.62557    1.000
    C1131    C        0.05860    0.33690    0.61860    1.000
    C1132    C        0.93680    0.28130    0.64378    1.000
    H743     H        0.00550    0.37900    0.59580    1.000
    C1133    C        0.06670    0.39140    0.60190    1.000
    H744     H        0.88120    0.32330    0.61970    1.000
    C1134    C        0.88610    0.31170    0.63864    1.000
    H745     H        0.10690    0.57600    0.42890    1.000
    H746     H        0.13680    0.56390    0.43820    1.000
    C1135    C        0.15430    0.56530    0.41969    1.000
    H747     H        0.97250    0.41750    0.40420    1.000
    C1136    C        0.90580    0.39620    0.40700    1.000
    H748     H        0.04780    0.37280    0.42970    1.000
    C1137    C        0.01390    0.32020    0.44300    1.000
    H749     H        0.84830    0.37980    0.41110    1.000
    H750     H        0.97330    0.28680    0.45970    1.000
    H751     H        0.91040    0.11300    0.62600    1.000
    H752     H        0.95320    0.11620    0.61830    1.000
    C1138    C        0.96340    0.12160    0.63730    1.000
    C1139    C        0.08440    0.37630    0.61120    1.000
    H753     H        0.07340    0.32690    0.62440    1.000
    C1140    C        0.90570    0.29250    0.64751    1.000
    H754     H        0.95180    0.27280    0.65000    1.000
    H755     H        0.08540    0.41600    0.59630    1.000
    H756     H        0.86730    0.32340    0.64170    1.000
    C1141    C        0.14280    0.53250    0.41042    1.000
    C1142    C        0.19790    0.60570    0.41853    1.000
    H757     H        0.89920    0.39630    0.39830    1.000
    H758     H        0.02800    0.30210    0.44140    1.000
    C1143    C        0.95270    0.07570    0.64120    1.000
    C1144    C        0.98520    0.15380    0.64580    1.000
    H759     H        0.11660    0.39400    0.61280    1.000
    H760     H        0.89600    0.28790    0.65610    1.000
    H761     H        0.11400    0.50480    0.41100    1.000
    C1145    C        0.17140    0.53790    0.40009    1.000
    C1146    C        0.22480    0.61020    0.40838    1.000
    H762     H        0.20830    0.62930    0.42480    1.000
    H763     H        0.93580    0.04930    0.63600    1.000
    C1147    C        0.96900    0.07300    0.65328    1.000
    C1148    C        0.00730    0.14890    0.65779    1.000
    H764     H        0.98740    0.18290    0.64440    1.000
    H765     H        0.16180    0.51510    0.39370    1.000
    C1149    C        0.21530    0.57870    0.39959    1.000
    H766     H        0.25290    0.63860    0.40750    1.000
    H767     H        0.95980    0.04260    0.65600    1.000
    C1150    C        0.99420    0.10450    0.66117    1.000
    H768     H        0.02870    0.17470    0.66260    1.000
    C1151    C        0.24730    0.58380    0.38920    1.000
    C1152    C        0.01540    0.09700    0.67190    1.000
    O208     O        0.99340    0.05690    0.67579    1.000
    Zn33     Zn       0.44565    0.71110    0.87295    1.000
    O209     O        0.38887    0.67383    0.86430    1.000
    O210     O        0.49237    0.74053    0.85967    1.000
    O211     O        0.46307    0.67463    0.88247    1.000
    O212     O        0.45067    0.75793    0.88338    1.000
    Zn34     Zn       0.40577    0.63073    0.85673    1.000
    C1153    C        0.48897    0.71433    0.85062    1.000
    C1154    C        0.45237    0.63253    0.87900    1.000
    O213     O        0.46247    0.67323    0.84799    1.000
    O214     O        0.42637    0.60753    0.87015    1.000
    O215     O        0.37557    0.58133    0.84481    1.000
    O216     O        0.34597    0.62473    0.88722    1.000
    C1155    C        0.52607    0.74193    0.84040    1.000
    C1156    C        0.47137    0.60993    0.88795    1.000
    C1157    C        0.52847    0.72023    0.82889    1.000
    C1158    C        0.55817    0.78663    0.84155    1.000
    C1159    C        0.49967    0.63273    0.89902    1.000
    C1160    C        0.46787    0.56883    0.88460    1.000
    C1161    C        0.56087    0.74393    0.82050    1.000
    H769     H        0.50667    0.68883    0.82733    1.000
    H770     H        0.55747    0.80223    0.84903    1.000
    C1162    C        0.59227    0.81193    0.83273    1.000
    C1163    C        0.51847    0.61203    0.90650    1.000
    H771     H        0.50547    0.66273    0.90123    1.000
    H772     H        0.45387    0.55453    0.87683    1.000
    C1164    C        0.48547    0.54713    0.89296    1.000
    C1165    C        0.59347    0.79103    0.82150    1.000
    H773     H        0.56237    0.72793    0.81323    1.000
    H774     H        0.61457    0.84323    0.83433    1.000
    C1166    C        0.51017    0.56893    0.90355    1.000
    H775     H        0.53697    0.62783    0.91363    1.000
    H776     H        0.47977    0.51703    0.89103    1.000
    C1167    C        0.62697    0.81853    0.81151    1.000
    C1168    C        0.52547    0.54233    0.91169    1.000
    H777     H        0.65877    0.83133    0.81473    1.000
    H778     H        0.62257    0.84463    0.80903    1.000
    O217     O        0.62057    0.79073    0.80107    1.000
    H779     H        0.54237    0.53093    0.90653    1.000
    H780     H        0.49837    0.51543    0.91553    1.000
    O218     O        0.55417    0.57193    0.92120    1.000
    C1169    C        0.65697    0.80593    0.79254    1.000
    C1170    C        0.57437    0.55553    0.92881    1.000
    C1171    C        0.69117    0.85233    0.79226    1.000
    C1172    C        0.64847    0.77703    0.78155    1.000
    C1173    C        0.56347    0.51053    0.92891    1.000
    C1174    C        0.59787    0.58453    0.93968    1.000
    H781     H        0.69017    0.87393    0.79793    1.000
    C1175    C        0.72697    0.86643    0.78349    1.000
    C1176    C        0.68357    0.79203    0.77324    1.000
    C1177    C        0.61047    0.73023    0.77913    1.000
    C1178    C        0.58507    0.49633    0.93833    1.000
    H782     H        0.54237    0.48923    0.92293    1.000
    C1179    C        0.61927    0.57183    0.94854    1.000
    C1180    C        0.61007    0.63313    0.94148    1.000
    H783     H        0.75457    0.89533    0.78443    1.000
    C1181    C        0.72107    0.83623    0.77302    1.000
    C1182    C        0.67527    0.75393    0.76359    1.000
    H784     H        0.58487    0.72023    0.78543    1.000
    C1183    C        0.59567    0.72853    0.76683    1.000
    C1184    C        0.63317    0.70223    0.77983    1.000
    C1185    C        0.61217    0.52903    0.94873    1.000
    H785     H        0.58207    0.46663    0.93793    1.000
    C1186    C        0.64927    0.60473    0.95770    1.000
    H786     H        0.59537    0.64363    0.93503    1.000
    C1187    C        0.65877    0.66153    0.94188    1.000
    C1188    C        0.59177    0.63163    0.95524    1.000
    O219     O        0.75327    0.84743    0.76427    1.000
    H787     H        0.70047    0.76363    0.75713    1.000
    C1189    C        0.62847    0.74193    0.75783    1.000
    C1190    C        0.66687    0.71343    0.77093    1.000
    C1191    C        0.55127    0.71423    0.76273    1.000
    C1192    C        0.62087    0.66423    0.78783    1.000
    O220     O        0.62927    0.50903    0.95751    1.000
    H788     H        0.66547    0.59333    0.96333    1.000
    C1193    C        0.68037    0.64713    0.95059    1.000
    C1194    C        0.61437    0.61503    0.96471    1.000
    C1195    C        0.68677    0.70123    0.93470    1.000
    C1196    C        0.56187    0.64623    0.95897    1.000
    C1197    C        0.78667    0.88883    0.76338    1.000
    C1198    C        0.61597    0.74193    0.74383    1.000
    C1199    C        0.69037    0.69413    0.76916    1.000
    C1200    C        0.54437    0.71933    0.74733    1.000
    H789     H        0.52597    0.70203    0.76843    1.000
    C1201    C        0.64487    0.64293    0.78693    1.000
    H790     H        0.59617    0.65433    0.79373    1.000
    C1202    C        0.61117    0.46213    0.95890    1.000
    C1203    C        0.72527    0.67023    0.95193    1.000
    C1204    C        0.60347    0.61463    0.97711    1.000
    H791     H        0.67217    0.71233    0.92913    1.000
    C1205    C        0.73337    0.72473    0.93523    1.000
    H792     H        0.54787    0.65663    0.95303    1.000
    C1206    C        0.55277    0.64503    0.97197    1.000
    H793     H        0.77357    0.90933    0.76223    1.000
    H794     H        0.80347    0.89723    0.77153    1.000
    C1207    C        0.82097    0.89863    0.75302    1.000
    H795     H        0.63917    0.75083    0.73753    1.000
    C1208    C        0.57247    0.72953    0.74033    1.000
    H796     H        0.71447    0.70613    0.76303    1.000
    C1209    C        0.68057    0.65353    0.77633    1.000
    H797     H        0.51497    0.71313    0.74443    1.000
    H798     H        0.63997    0.62013    0.79303    1.000
    H799     H        0.57707    0.44633    0.95933    1.000
    H800     H        0.61987    0.44953    0.95163    1.000
    C1210    C        0.63007    0.45493    0.97063    1.000
    C1211    C        0.75107    0.70963    0.94453    1.000
    H801     H        0.74007    0.66023    0.95773    1.000
    C1212    C        0.57237    0.62583    0.98084    1.000
    H802     H        0.61847    0.60613    0.98333    1.000
    H803     H        0.75207    0.74933    0.92963    1.000
    H804     H        0.53397    0.65673    0.97503    1.000
    C1213    C        0.80947    0.86583    0.74375    1.000
    C1214    C        0.86457    0.93903    0.75186    1.000
    H805     H        0.56587    0.72963    0.73163    1.000
    H806     H        0.69467    0.63543    0.77473    1.000
    C1215    C        0.61937    0.40903    0.97453    1.000
    C1216    C        0.65187    0.48713    0.97913    1.000
    H807     H        0.78327    0.72733    0.94613    1.000
    H808     H        0.56267    0.62123    0.98943    1.000
    H809     H        0.78067    0.83813    0.74433    1.000
    C1217    C        0.83807    0.87123    0.73342    1.000
    C1218    C        0.89147    0.94353    0.74171    1.000
    H810     H        0.87497    0.96263    0.75813    1.000
    H811     H        0.60247    0.38263    0.96933    1.000
    C1219    C        0.63567    0.40633    0.98661    1.000
    C1220    C        0.67397    0.48223    0.99112    1.000
    H812     H        0.65407    0.51623    0.97773    1.000
    H813     H        0.82847    0.84843    0.72703    1.000
    C1221    C        0.88197    0.91203    0.73292    1.000
    H814     H        0.91957    0.97193    0.74083    1.000
    H815     H        0.62647    0.37593    0.98933    1.000
    C1222    C        0.66087    0.43783    0.99450    1.000
    H816     H        0.69537    0.50803    0.99593    1.000
    C1223    C        0.91397    0.91713    0.72253    1.000
    C1224    C        0.68207    0.43033    0.00523    1.000
    O221     O        0.66007    0.39023    0.00912    1.000
    Zn35     Zn       0.11231    0.04444    0.20629    1.000
    O222     O        0.05553    0.00717    0.19764    1.000
    O223     O        0.15903    0.07387    0.19301    1.000
    O224     O        0.12973    0.00797    0.21581    1.000
    O225     O        0.11733    0.09127    0.21672    1.000
    Zn36     Zn       0.07243    0.96407    0.19007    1.000
    C1225    C        0.15563    0.04767    0.18396    1.000
    C1226    C        0.11903    0.96587    0.21234    1.000
    O226     O        0.12913    0.00657    0.18133    1.000
    O227     O        0.09303    0.94087    0.20349    1.000
    O228     O        0.04223    0.91467    0.17815    1.000
    O229     O        0.01263    0.95807    0.22056    1.000
    C1227    C        0.19273    0.07527    0.17374    1.000
    C1228    C        0.13803    0.94327    0.22129    1.000
    C1229    C        0.19513    0.05357    0.16223    1.000
    C1230    C        0.22483    0.11997    0.17489    1.000
    C1231    C        0.16633    0.96607    0.23236    1.000
    C1232    C        0.13453    0.90217    0.21794    1.000
    C1233    C        0.22753    0.07727    0.15384    1.000
    H817     H        0.17333    0.02217    0.16067    1.000
    H818     H        0.22413    0.13557    0.18237    1.000
    C1234    C        0.25893    0.14527    0.16607    1.000
    C1235    C        0.18513    0.94537    0.23984    1.000
    H819     H        0.17213    0.99607    0.23457    1.000
    H820     H        0.12053    0.88787    0.21017    1.000
    C1236    C        0.15213    0.88047    0.22630    1.000
    C1237    C        0.26013    0.12437    0.15484    1.000
    H821     H        0.22903    0.06127    0.14657    1.000
    H822     H        0.28123    0.17657    0.16767    1.000
    C1238    C        0.17683    0.90227    0.23689    1.000
    H823     H        0.20363    0.96117    0.24697    1.000
    H824     H        0.14643    0.85037    0.22437    1.000
    C1239    C        0.29363    0.15187    0.14485    1.000
    C1240    C        0.19213    0.87567    0.24503    1.000
    H825     H        0.32543    0.16467    0.14807    1.000
    H826     H        0.28923    0.17797    0.14237    1.000
    O230     O        0.28723    0.12407    0.13441    1.000
    H827     H        0.20903    0.86427    0.23987    1.000
    H828     H        0.16503    0.84877    0.24887    1.000
    O231     O        0.22083    0.90527    0.25454    1.000
    C1241    C        0.32363    0.13927    0.12588    1.000
    C1242    C        0.24103    0.88887    0.26215    1.000
    C1243    C        0.35783    0.18567    0.12560    1.000
    C1244    C        0.31513    0.11037    0.11489    1.000
    C1245    C        0.23013    0.84387    0.26225    1.000
    C1246    C        0.26453    0.91787    0.27302    1.000
    H829     H        0.35683    0.20727    0.13127    1.000
    C1247    C        0.39363    0.19977    0.11683    1.000
    C1248    C        0.35023    0.12537    0.10658    1.000
    C1249    C        0.27713    0.06357    0.11247    1.000
    C1250    C        0.25173    0.82967    0.27167    1.000
    H830     H        0.20903    0.82257    0.25627    1.000
    C1251    C        0.28593    0.90517    0.28188    1.000
    C1252    C        0.27673    0.96647    0.27482    1.000
    H831     H        0.42123    0.22867    0.11777    1.000
    C1253    C        0.38773    0.16957    0.10636    1.000
    C1254    C        0.34193    0.08727    0.09693    1.000
    H832     H        0.25153    0.05357    0.11877    1.000
    C1255    C        0.26233    0.06187    0.10017    1.000
    C1256    C        0.29983    0.03557    0.11317    1.000
    C1257    C        0.27883    0.86237    0.28207    1.000
    H833     H        0.24873    0.79997    0.27127    1.000
    C1258    C        0.31593    0.93807    0.29104    1.000
    H834     H        0.26203    0.97697    0.26837    1.000
    C1259    C        0.32543    0.99487    0.27522    1.000
    C1260    C        0.25843    0.96497    0.28858    1.000
    O232     O        0.41993    0.18077    0.09761    1.000
    H835     H        0.36713    0.09697    0.09047    1.000
    C1261    C        0.29513    0.07527    0.09117    1.000
    C1262    C        0.33353    0.04677    0.10427    1.000
    C1263    C        0.21793    0.04757    0.09607    1.000
    C1264    C        0.28753    0.99757    0.12117    1.000
    O233     O        0.29593    0.84237    0.29085    1.000
    H836     H        0.33213    0.92667    0.29667    1.000
    C1265    C        0.34703    0.98047    0.28393    1.000
    C1266    C        0.28103    0.94837    0.29805    1.000
    C1267    C        0.35343    0.03457    0.26804    1.000
    C1268    C        0.22853    0.97957    0.29231    1.000
    C1269    C        0.45333    0.22217    0.09672    1.000
    C1270    C        0.28263    0.07527    0.07717    1.000
    C1271    C        0.35703    0.02747    0.10250    1.000
    C1272    C        0.21103    0.05267    0.08067    1.000
    H837     H        0.19263    0.03537    0.10177    1.000
    C1273    C        0.31153    0.97627    0.12027    1.000
    H838     H        0.26283    0.98767    0.12707    1.000
    C1274    C        0.27783    0.79547    0.29224    1.000
    C1275    C        0.39193    0.00357    0.28527    1.000
    C1276    C        0.27013    0.94797    0.31045    1.000
    H839     H        0.33883    0.04567    0.26247    1.000
    C1277    C        0.40003    0.05807    0.26857    1.000
    H840     H        0.21453    0.98997    0.28637    1.000
    C1278    C        0.21943    0.97837    0.30531    1.000
    H841     H        0.44023    0.24267    0.09557    1.000
    H842     H        0.47013    0.23057    0.10487    1.000
    C1279    C        0.48763    0.23197    0.08636    1.000
    H843     H        0.30583    0.08417    0.07087    1.000
    C1280    C        0.23913    0.06287    0.07367    1.000
    H844     H        0.38113    0.03947    0.09637    1.000
    C1281    C        0.34723    0.98687    0.10967    1.000
    H845     H        0.18163    0.04647    0.07777    1.000
    H846     H        0.30663    0.95347    0.12637    1.000
    H847     H        0.24373    0.77967    0.29267    1.000
    H848     H        0.28653    0.78287    0.28497    1.000
    C1282    C        0.29673    0.78827    0.30397    1.000
    C1283    C        0.41773    0.04297    0.27787    1.000
    H849     H        0.40673    0.99357    0.29107    1.000
    C1284    C        0.23903    0.95917    0.31418    1.000
    H850     H        0.28513    0.93947    0.31667    1.000
    H851     H        0.41873    0.08267    0.26297    1.000
    H852     H        0.20063    0.99007    0.30837    1.000
    C1285    C        0.47613    0.19917    0.07709    1.000
    C1286    C        0.53123    0.27237    0.08520    1.000
    H853     H        0.23253    0.06297    0.06497    1.000
    H854     H        0.36133    0.96877    0.10807    1.000
    C1287    C        0.28603    0.74237    0.30787    1.000
    C1288    C        0.31853    0.82047    0.31247    1.000
    H855     H        0.44993    0.06067    0.27947    1.000
    H856     H        0.22933    0.95457    0.32277    1.000
    H857     H        0.44733    0.17147    0.07767    1.000
    C1289    C        0.50473    0.20457    0.06676    1.000
    C1290    C        0.55813    0.27687    0.07505    1.000
    H858     H        0.54163    0.29597    0.09147    1.000
    H859     H        0.26913    0.71597    0.30267    1.000
    C1291    C        0.30233    0.73967    0.31995    1.000
    C1292    C        0.34063    0.81557    0.32446    1.000
    H860     H        0.32073    0.84957    0.31107    1.000
    H861     H        0.49513    0.18177    0.06037    1.000
    C1293    C        0.54863    0.24537    0.06626    1.000
    H862     H        0.58623    0.30527    0.07417    1.000
    H863     H        0.29313    0.70927    0.32267    1.000
    C1294    C        0.32753    0.77117    0.32784    1.000
    H864     H        0.36203    0.84137    0.32927    1.000
    C1295    C        0.58063    0.25047    0.05587    1.000
    C1296    C        0.34873    0.76367    0.33857    1.000
    O234     O        0.32673    0.72357    0.34246    1.000
    Zn37     Zn       0.66667    0.33333    0.04219    1.000
    Zn38     Zn       0.33333    0.66667    0.37552    1.000
    Zn39     Zn       0.00000    0.00000    0.70886    1.000
    Zn40     Zn       0.66667    0.33333    0.54219    1.000
    Zn41     Zn       0.33333    0.66667    0.87552    1.000
    Zn42     Zn       0.00000    0.00000    0.20886    1.000
    Zn43     Zn       0.40121    0.77898    0.46038    1.000
    O235     O        0.38170    0.72220    0.46903    1.000
    O236     O        0.41850    0.82570    0.47366    1.000
    O237     O        0.45510    0.79640    0.45086    1.000
    O238     O        0.35940    0.78400    0.44995    1.000
    Zn44     Zn       0.44170    0.73910    0.47660    1.000
    C1297    C        0.44130    0.82230    0.48271    1.000
    C1298    C        0.48650    0.78570    0.45433    1.000
    O239     O        0.45590    0.79580    0.48534    1.000
    O240     O        0.48550    0.75970    0.46318    1.000
    O241     O        0.46090    0.70890    0.48852    1.000
    O242     O        0.38790    0.67930    0.44611    1.000
    C1299    C        0.45080    0.85940    0.49293    1.000
    C1300    C        0.52810    0.80470    0.44538    1.000
    C1301    C        0.47490    0.86180    0.50444    1.000
    C1302    C        0.43820    0.89150    0.49178    1.000
    C1303    C        0.53360    0.83300    0.43431    1.000
    C1304    C        0.56570    0.80120    0.44873    1.000
    C1305    C        0.48360    0.89420    0.51283    1.000
    H865     H        0.48450    0.84000    0.50600    1.000
    H866     H        0.42190    0.89080    0.48430    1.000
    C1306    C        0.44700    0.92560    0.50060    1.000
    C1307    C        0.57310    0.85180    0.42683    1.000
    H867     H        0.50940    0.83880    0.43210    1.000
    H868     H        0.56600    0.78720    0.45650    1.000
    C1308    C        0.60500    0.81880    0.44037    1.000
    C1309    C        0.46910    0.92680    0.51183    1.000
    H869     H        0.50110    0.89570    0.52010    1.000
    H870     H        0.43800    0.94790    0.49900    1.000
    C1310    C        0.60790    0.84350    0.42978    1.000
    H871     H        0.57580    0.87030    0.41970    1.000
    H872     H        0.62940    0.81310    0.44230    1.000
    C1311    C        0.47510    0.96030    0.52182    1.000
    C1312    C        0.64980    0.85880    0.42164    1.000
    H873     H        0.49410    0.99210    0.51860    1.000
    H874     H        0.44460    0.95590    0.52430    1.000
    O243     O        0.49650    0.95390    0.53226    1.000
    H875     H        0.67810    0.87570    0.42680    1.000
    H876     H        0.64960    0.83170    0.41780    1.000
    O244     O        0.64890    0.88750    0.41213    1.000
    C1313    C        0.51770    0.99030    0.54079    1.000
    C1314    C        0.68550    0.90770    0.40452    1.000
    C1315    C        0.50550    0.02450    0.54107    1.000
    C1316    C        0.53810    0.98180    0.55178    1.000
    C1317    C        0.71960    0.89680    0.40442    1.000
    C1318    C        0.68000    0.93120    0.39365    1.000
    H877     H        0.48290    0.02350    0.53540    1.000
    C1319    C        0.52720    0.06030    0.54984    1.000
    C1320    C        0.55820    0.01690    0.56009    1.000
    C1321    C        0.54690    0.94380    0.55420    1.000
    C1322    C        0.75540    0.91840    0.39500    1.000
    H878     H        0.71980    0.87570    0.41040    1.000
    C1323    C        0.71410    0.95260    0.38479    1.000
    C1324    C        0.64360    0.94340    0.39185    1.000
    H879     H        0.52590    0.08790    0.54890    1.000
    C1325    C        0.55150    0.05440    0.56031    1.000
    C1326    C        0.58800    0.00860    0.56974    1.000
    H880     H        0.53130    0.91820    0.54790    1.000
    C1327    C        0.53380    0.92900    0.56650    1.000
    C1328    C        0.59760    0.96650    0.55350    1.000
    C1329    C        0.74980    0.94550    0.38460    1.000
    H881     H        0.78210    0.91540    0.39540    1.000
    C1330    C        0.71120    0.98260    0.37563    1.000
    H882     H        0.61840    0.92870    0.39830    1.000
    C1331    C        0.66390    0.99210    0.39145    1.000
    C1332    C        0.62680    0.92510    0.37809    1.000
    O245     O        0.57250    0.08660    0.56906    1.000
    H883     H        0.60350    0.03380    0.57620    1.000
    C1333    C        0.55320    0.96180    0.57550    1.000
    C1334    C        0.62010    0.00020    0.56240    1.000
    C1335    C        0.50370    0.88460    0.57060    1.000
    C1336    C        0.62330    0.95420    0.54550    1.000
    O246     O        0.78690    0.96260    0.37582    1.000
    H884     H        0.73880    0.99880    0.37000    1.000
    C1337    C        0.69990    0.01370    0.38274    1.000
    C1338    C        0.66600    0.94770    0.36862    1.000
    C1339    C        0.65220    0.02010    0.39863    1.000
    C1340    C        0.58230    0.89520    0.37436    1.000
    C1341    C        0.56450    0.12000    0.56995    1.000
    C1342    C        0.54070    0.94930    0.58950    1.000
    C1343    C        0.66290    0.02370    0.56417    1.000
    C1344    C        0.49170    0.87770    0.58600    1.000
    H885     H        0.49060    0.85930    0.56490    1.000
    C1345    C        0.66860    0.97820    0.54640    1.000
    H886     H        0.60850    0.92950    0.53960    1.000
    C1346    C        0.81570    0.94450    0.37443    1.000
    C1347    C        0.72170    0.05860    0.38140    1.000
    C1348    C        0.65550    0.93680    0.35622    1.000
    H887     H        0.62650    0.00550    0.40420    1.000
    C1349    C        0.67530    0.06670    0.39810    1.000
    H888     H        0.55790    0.88120    0.38030    1.000
    C1350    C        0.57440    0.88610    0.36136    1.000
    H889     H        0.53090    0.10690    0.57110    1.000
    H890     H        0.57290    0.13680    0.56180    1.000
    C1351    C        0.58900    0.15430    0.58031    1.000
    H891     H        0.55500    0.97250    0.59580    1.000
    C1352    C        0.50960    0.90580    0.59300    1.000
    H892     H        0.67500    0.04780    0.57030    1.000
    C1353    C        0.69370    0.01390    0.55700    1.000
    H893     H        0.46850    0.84830    0.58890    1.000
    H894     H        0.68650    0.97330    0.54030    1.000
    H895     H        0.79740    0.91040    0.37400    1.000
    H896     H        0.83700    0.95320    0.38170    1.000
    C1354    C        0.84180    0.96340    0.36270    1.000
    C1355    C        0.70810    0.08440    0.38880    1.000
    H897     H        0.74650    0.07340    0.37560    1.000
    C1356    C        0.61320    0.90570    0.35249    1.000
    H898     H        0.67900    0.95180    0.35000    1.000
    H899     H        0.66940    0.08540    0.40370    1.000
    H900     H        0.54390    0.86730    0.35830    1.000
    C1357    C        0.61030    0.14280    0.58958    1.000
    C1358    C        0.59220    0.19790    0.58147    1.000
    H901     H        0.50290    0.89920    0.60170    1.000
    H902     H        0.72590    0.02800    0.55860    1.000
    C1359    C        0.87700    0.95270    0.35880    1.000
    C1360    C        0.83140    0.98520    0.35420    1.000
    H903     H        0.72260    0.11660    0.38720    1.000
    H904     H        0.60810    0.89600    0.34390    1.000
    H905     H        0.60920    0.11400    0.58900    1.000
    C1361    C        0.63350    0.17140    0.59991    1.000
    C1362    C        0.61460    0.22480    0.59162    1.000
    H906     H        0.57900    0.20830    0.57520    1.000
    H907     H        0.88650    0.93580    0.36400    1.000
    C1363    C        0.89600    0.96900    0.34672    1.000
    C1364    C        0.85840    0.00730    0.34221    1.000
    H908     H        0.80450    0.98740    0.35560    1.000
    H909     H        0.64670    0.16180    0.60630    1.000
    C1365    C        0.63660    0.21530    0.60041    1.000
    H910     H        0.61430    0.25290    0.59250    1.000
    H911     H        0.91720    0.95980    0.34400    1.000
    C1366    C        0.88970    0.99420    0.33883    1.000
    H912     H        0.85400    0.02870    0.33740    1.000
    C1367    C        0.66350    0.24730    0.61080    1.000
    C1368    C        0.91840    0.01540    0.32810    1.000
    O247     O        0.93650    0.99340    0.32421    1.000
    Zn45     Zn       0.06788    0.11231    0.79371    1.000
    O248     O        0.04837    0.05553    0.80236    1.000
    O249     O        0.08517    0.15903    0.80699    1.000
    O250     O        0.12177    0.12973    0.78419    1.000
    O251     O        0.02607    0.11733    0.78328    1.000
    Zn46     Zn       0.10837    0.07243    0.80993    1.000
    C1369    C        0.10797    0.15563    0.81604    1.000
    C1370    C        0.15317    0.11903    0.78766    1.000
    O252     O        0.12257    0.12913    0.81867    1.000
    O253     O        0.15217    0.09303    0.79651    1.000
    O254     O        0.12757    0.04223    0.82185    1.000
    O255     O        0.05457    0.01263    0.77944    1.000
    C1371    C        0.11747    0.19273    0.82626    1.000
    C1372    C        0.19477    0.13803    0.77871    1.000
    C1373    C        0.14157    0.19513    0.83777    1.000
    C1374    C        0.10487    0.22483    0.82511    1.000
    C1375    C        0.20027    0.16633    0.76764    1.000
    C1376    C        0.23237    0.13453    0.78206    1.000
    C1377    C        0.15027    0.22753    0.84616    1.000
    H913     H        0.15117    0.17333    0.83933    1.000
    H914     H        0.08857    0.22413    0.81763    1.000
    C1378    C        0.11367    0.25893    0.83393    1.000
    C1379    C        0.23977    0.18513    0.76016    1.000
    H915     H        0.17607    0.17213    0.76543    1.000
    H916     H        0.23267    0.12053    0.78983    1.000
    C1380    C        0.27167    0.15213    0.77370    1.000
    C1381    C        0.13577    0.26013    0.84516    1.000
    H917     H        0.16777    0.22903    0.85343    1.000
    H918     H        0.10467    0.28123    0.83233    1.000
    C1382    C        0.27457    0.17683    0.76311    1.000
    H919     H        0.24247    0.20363    0.75303    1.000
    H920     H        0.29607    0.14643    0.77563    1.000
    C1383    C        0.14177    0.29363    0.85515    1.000
    C1384    C        0.31647    0.19213    0.75497    1.000
    H921     H        0.16077    0.32543    0.85193    1.000
    H922     H        0.11127    0.28923    0.85763    1.000
    O256     O        0.16317    0.28723    0.86559    1.000
    H923     H        0.34477    0.20903    0.76013    1.000
    H924     H        0.31627    0.16503    0.75113    1.000
    O257     O        0.31557    0.22083    0.74546    1.000
    C1385    C        0.18437    0.32363    0.87412    1.000
    C1386    C        0.35217    0.24103    0.73785    1.000
    C1387    C        0.17217    0.35783    0.87440    1.000
    C1388    C        0.20477    0.31513    0.88511    1.000
    C1389    C        0.38627    0.23013    0.73775    1.000
    C1390    C        0.34667    0.26453    0.72698    1.000
    H925     H        0.14957    0.35683    0.86873    1.000
    C1391    C        0.19387    0.39363    0.88317    1.000
    C1392    C        0.22487    0.35023    0.89342    1.000
    C1393    C        0.21357    0.27713    0.88753    1.000
    C1394    C        0.42207    0.25173    0.72833    1.000
    H926     H        0.38647    0.20903    0.74373    1.000
    C1395    C        0.38077    0.28593    0.71812    1.000
    C1396    C        0.31027    0.27673    0.72518    1.000
    H927     H        0.19257    0.42123    0.88223    1.000
    C1397    C        0.21817    0.38773    0.89364    1.000
    C1398    C        0.25467    0.34193    0.90307    1.000
    H928     H        0.19797    0.25153    0.88123    1.000
    C1399    C        0.20047    0.26233    0.89983    1.000
    C1400    C        0.26427    0.29983    0.88683    1.000
    C1401    C        0.41647    0.27883    0.71793    1.000
    H929     H        0.44877    0.24873    0.72873    1.000
    C1402    C        0.37787    0.31593    0.70896    1.000
    H930     H        0.28507    0.26203    0.73163    1.000
    C1403    C        0.33057    0.32543    0.72478    1.000
    C1404    C        0.29347    0.25843    0.71142    1.000
    O258     O        0.23917    0.41993    0.90239    1.000
    H931     H        0.27017    0.36713    0.90953    1.000
    C1405    C        0.21987    0.29513    0.90883    1.000
    C1406    C        0.28677    0.33353    0.89573    1.000
    C1407    C        0.17037    0.21793    0.90393    1.000
    C1408    C        0.28997    0.28753    0.87883    1.000
    O259     O        0.45357    0.29593    0.70915    1.000
    H932     H        0.40547    0.33213    0.70333    1.000
    C1409    C        0.36657    0.34703    0.71607    1.000
    C1410    C        0.33267    0.28103    0.70195    1.000
    C1411    C        0.31887    0.35343    0.73196    1.000
    C1412    C        0.24897    0.22853    0.70769    1.000
    C1413    C        0.23117    0.45333    0.90328    1.000
    C1414    C        0.20737    0.28263    0.92283    1.000
    C1415    C        0.32957    0.35703    0.89750    1.000
    C1416    C        0.15837    0.21103    0.91933    1.000
    H933     H        0.15727    0.19263    0.89823    1.000
    C1417    C        0.33527    0.31153    0.87973    1.000
    H934     H        0.27517    0.26283    0.87293    1.000
    C1418    C        0.48237    0.27783    0.70776    1.000
    C1419    C        0.38837    0.39193    0.71473    1.000
    C1420    C        0.32217    0.27013    0.68955    1.000
    H935     H        0.29317    0.33883    0.73753    1.000
    C1421    C        0.34197    0.40003    0.73143    1.000
    H936     H        0.22457    0.21453    0.71363    1.000
    C1422    C        0.24107    0.21943    0.69469    1.000
    H937     H        0.19757    0.44023    0.90443    1.000
    H938     H        0.23957    0.47013    0.89513    1.000
    C1423    C        0.25567    0.48763    0.91364    1.000
    H939     H        0.22167    0.30583    0.92913    1.000
    C1424    C        0.17627    0.23913    0.92633    1.000
    H940     H        0.34167    0.38113    0.90363    1.000
    C1425    C        0.36037    0.34723    0.89033    1.000
    H941     H        0.13517    0.18163    0.92223    1.000
    H942     H        0.35317    0.30663    0.87363    1.000
    H943     H        0.46407    0.24373    0.70733    1.000
    H944     H        0.50367    0.28653    0.71503    1.000
    C1426    C        0.50847    0.29673    0.69603    1.000
    C1427    C        0.37477    0.41773    0.72213    1.000
    H945     H        0.41317    0.40673    0.70893    1.000
    C1428    C        0.27987    0.23903    0.68582    1.000
    H946     H        0.34567    0.28513    0.68333    1.000
    H947     H        0.33607    0.41873    0.73703    1.000
    H948     H        0.21057    0.20063    0.69163    1.000
    C1429    C        0.27697    0.47613    0.92291    1.000
    C1430    C        0.25887    0.53123    0.91480    1.000
    H949     H        0.16957    0.23253    0.93503    1.000
    H950     H        0.39257    0.36133    0.89193    1.000
    C1431    C        0.54367    0.28603    0.69213    1.000
    C1432    C        0.49807    0.31853    0.68753    1.000
    H951     H        0.38927    0.44993    0.72053    1.000
    H952     H        0.27477    0.22933    0.67723    1.000
    H953     H        0.27587    0.44733    0.92233    1.000
    C1433    C        0.30017    0.50473    0.93324    1.000
    C1434    C        0.28127    0.55813    0.92495    1.000
    H954     H        0.24567    0.54163    0.90853    1.000
    H955     H        0.55317    0.26913    0.69733    1.000
    C1435    C        0.56267    0.30233    0.68005    1.000
    C1436    C        0.52507    0.34063    0.67554    1.000
    H956     H        0.47117    0.32073    0.68893    1.000
    H957     H        0.31337    0.49513    0.93963    1.000
    C1437    C        0.30327    0.54863    0.93374    1.000
    H958     H        0.28097    0.58623    0.92583    1.000
    H959     H        0.58387    0.29313    0.67733    1.000
    C1438    C        0.55637    0.32753    0.67216    1.000
    H960     H        0.52067    0.36203    0.67073    1.000
    C1439    C        0.33017    0.58063    0.94413    1.000
    C1440    C        0.58507    0.34873    0.66143    1.000
    O260     O        0.60317    0.32673    0.65754    1.000
    Zn47     Zn       0.73454    0.44565    0.12705    1.000
    O261     O        0.71503    0.38887    0.13570    1.000
    O262     O        0.75183    0.49237    0.14033    1.000
    O263     O        0.78843    0.46307    0.11753    1.000
    O264     O        0.69273    0.45067    0.11662    1.000
    Zn48     Zn       0.77503    0.40577    0.14327    1.000
    C1441    C        0.77463    0.48897    0.14938    1.000
    C1442    C        0.81983    0.45237    0.12100    1.000
    O265     O        0.78923    0.46247    0.15201    1.000
    O266     O        0.81883    0.42637    0.12985    1.000
    O267     O        0.79423    0.37557    0.15519    1.000
    O268     O        0.72123    0.34597    0.11278    1.000
    C1443    C        0.78413    0.52607    0.15960    1.000
    C1444    C        0.86143    0.47137    0.11205    1.000
    C1445    C        0.80823    0.52847    0.17111    1.000
    C1446    C        0.77153    0.55817    0.15845    1.000
    C1447    C        0.86693    0.49967    0.10098    1.000
    C1448    C        0.89903    0.46787    0.11540    1.000
    C1449    C        0.81693    0.56087    0.17950    1.000
    H961     H        0.81783    0.50667    0.17267    1.000
    H962     H        0.75523    0.55747    0.15097    1.000
    C1450    C        0.78033    0.59227    0.16727    1.000
    C1451    C        0.90643    0.51847    0.09350    1.000
    H963     H        0.84273    0.50547    0.09877    1.000
    H964     H        0.89933    0.45387    0.12317    1.000
    C1452    C        0.93833    0.48547    0.10704    1.000
    C1453    C        0.80243    0.59347    0.17850    1.000
    H965     H        0.83443    0.56237    0.18677    1.000
    H966     H        0.77133    0.61457    0.16567    1.000
    C1454    C        0.94123    0.51017    0.09645    1.000
    H967     H        0.90913    0.53697    0.08637    1.000
    H968     H        0.96273    0.47977    0.10897    1.000
    C1455    C        0.80843    0.62697    0.18849    1.000
    C1456    C        0.98313    0.52547    0.08831    1.000
    H969     H        0.82743    0.65877    0.18527    1.000
    H970     H        0.77793    0.62257    0.19097    1.000
    O269     O        0.82983    0.62057    0.19893    1.000
    H971     H        0.01143    0.54237    0.09347    1.000
    H972     H        0.98293    0.49837    0.08447    1.000
    O270     O        0.98223    0.55417    0.07880    1.000
    C1457    C        0.85103    0.65697    0.20746    1.000
    C1458    C        0.01883    0.57437    0.07119    1.000
    C1459    C        0.83883    0.69117    0.20774    1.000
    C1460    C        0.87143    0.64847    0.21845    1.000
    C1461    C        0.05293    0.56347    0.07109    1.000
    C1462    C        0.01333    0.59787    0.06032    1.000
    H973     H        0.81623    0.69017    0.20207    1.000
    C1463    C        0.86053    0.72697    0.21651    1.000
    C1464    C        0.89153    0.68357    0.22676    1.000
    C1465    C        0.88023    0.61047    0.22087    1.000
    C1466    C        0.08873    0.58507    0.06167    1.000
    H974     H        0.05313    0.54237    0.07707    1.000
    C1467    C        0.04743    0.61927    0.05146    1.000
    C1468    C        0.97693    0.61007    0.05852    1.000
    H975     H        0.85923    0.75457    0.21557    1.000
    C1469    C        0.88483    0.72107    0.22698    1.000
    C1470    C        0.92133    0.67527    0.23641    1.000
    H976     H        0.86463    0.58487    0.21457    1.000
    C1471    C        0.86713    0.59567    0.23317    1.000
    C1472    C        0.93093    0.63317    0.22017    1.000
    C1473    C        0.08313    0.61217    0.05127    1.000
    H977     H        0.11543    0.58207    0.06207    1.000
    C1474    C        0.04453    0.64927    0.04230    1.000
    H978     H        0.95173    0.59537    0.06497    1.000
    C1475    C        0.99723    0.65877    0.05812    1.000
    C1476    C        0.96013    0.59177    0.04476    1.000
    O271     O        0.90583    0.75327    0.23573    1.000
    H979     H        0.93683    0.70047    0.24287    1.000
    C1477    C        0.88653    0.62847    0.24217    1.000
    C1478    C        0.95343    0.66687    0.22907    1.000
    C1479    C        0.83703    0.55127    0.23727    1.000
    C1480    C        0.95663    0.62087    0.21217    1.000
    O272     O        0.12023    0.62927    0.04249    1.000
    H980     H        0.07213    0.66547    0.03667    1.000
    C1481    C        0.03323    0.68037    0.04941    1.000
    C1482    C        0.99933    0.61437    0.03529    1.000
    C1483    C        0.98553    0.68677    0.06530    1.000
    C1484    C        0.91563    0.56187    0.04103    1.000
    C1485    C        0.89783    0.78667    0.23662    1.000
    C1486    C        0.87403    0.61597    0.25617    1.000
    C1487    C        0.99623    0.69037    0.23084    1.000
    C1488    C        0.82503    0.54437    0.25267    1.000
    H981     H        0.82393    0.52597    0.23157    1.000
    C1489    C        0.00193    0.64487    0.21307    1.000
    H982     H        0.94183    0.59617    0.20627    1.000
    C1490    C        0.14903    0.61117    0.04110    1.000
    C1491    C        0.05503    0.72527    0.04807    1.000
    C1492    C        0.98883    0.60347    0.02289    1.000
    H983     H        0.95983    0.67217    0.07087    1.000
    C1493    C        0.00863    0.73337    0.06477    1.000
    H984     H        0.89123    0.54787    0.04697    1.000
    C1494    C        0.90773    0.55277    0.02803    1.000
    H985     H        0.86423    0.77357    0.23777    1.000
    H986     H        0.90623    0.80347    0.22847    1.000
    C1495    C        0.92233    0.82097    0.24698    1.000
    H987     H        0.88833    0.63917    0.26247    1.000
    C1496    C        0.84293    0.57247    0.25967    1.000
    H988     H        0.00833    0.71447    0.23697    1.000
    C1497    C        0.02703    0.68057    0.22367    1.000
    H989     H        0.80183    0.51497    0.25557    1.000
    H990     H        0.01983    0.63997    0.20697    1.000
    H991     H        0.13073    0.57707    0.04067    1.000
    H992     H        0.17033    0.61987    0.04837    1.000
    C1498    C        0.17513    0.63007    0.02937    1.000
    C1499    C        0.04143    0.75107    0.05547    1.000
    H993     H        0.07983    0.74007    0.04227    1.000
    C1500    C        0.94653    0.57237    0.01916    1.000
    H994     H        0.01233    0.61847    0.01667    1.000
    H995     H        0.00273    0.75207    0.07037    1.000
    H996     H        0.87723    0.53397    0.02497    1.000
    C1501    C        0.94363    0.80947    0.25625    1.000
    C1502    C        0.92553    0.86457    0.24814    1.000
    H997     H        0.83623    0.56587    0.26837    1.000
    H998     H        0.05923    0.69467    0.22527    1.000
    C1503    C        0.21033    0.61937    0.02547    1.000
    C1504    C        0.16473    0.65187    0.02087    1.000
    H999     H        0.05593    0.78327    0.05387    1.000
    H1000    H        0.94143    0.56267    0.01057    1.000
    H1001    H        0.94253    0.78067    0.25567    1.000
    C1505    C        0.96683    0.83807    0.26658    1.000
    C1506    C        0.94793    0.89147    0.25829    1.000
    H1002    H        0.91233    0.87497    0.24187    1.000
    H1003    H        0.21983    0.60247    0.03067    1.000
    C1507    C        0.22933    0.63567    0.01339    1.000
    C1508    C        0.19173    0.67397    0.00888    1.000
    H1004    H        0.13783    0.65407    0.02227    1.000
    H1005    H        0.98003    0.82847    0.27297    1.000
    C1509    C        0.96993    0.88197    0.26708    1.000
    H1006    H        0.94763    0.91957    0.25917    1.000
    H1007    H        0.25053    0.62647    0.01067    1.000
    C1510    C        0.22303    0.66087    0.00550    1.000
    H1008    H        0.18733    0.69537    0.00407    1.000
    C1511    C        0.99683    0.91397    0.27747    1.000
    C1512    C        0.25173    0.68207    0.99477    1.000
    O273     O        0.26983    0.66007    0.99088    1.000
    Zn49     Zn       0.37777    0.59879    0.46038    1.000
    O274     O        0.34050    0.61830    0.46903    1.000
    O275     O        0.40720    0.58150    0.47366    1.000
    O276     O        0.34130    0.54490    0.45086    1.000
    O277     O        0.42460    0.64060    0.44995    1.000
    Zn50     Zn       0.29740    0.55830    0.47660    1.000
    C1513    C        0.38100    0.55870    0.48271    1.000
    C1514    C        0.29920    0.51350    0.45433    1.000
    O278     O        0.33990    0.54410    0.48534    1.000
    O279     O        0.27420    0.51450    0.46318    1.000
    O280     O        0.24800    0.53910    0.48852    1.000
    O281     O        0.29140    0.61210    0.44611    1.000
    C1515    C        0.40860    0.54920    0.49293    1.000
    C1516    C        0.27660    0.47190    0.44538    1.000
    C1517    C        0.38690    0.52510    0.50444    1.000
    C1518    C        0.45330    0.56180    0.49178    1.000
    C1519    C        0.29940    0.46640    0.43431    1.000
    C1520    C        0.23550    0.43430    0.44873    1.000
    C1521    C        0.41060    0.51640    0.51283    1.000
    H1009    H        0.35550    0.51550    0.50600    1.000
    H1010    H        0.46890    0.57810    0.48430    1.000
    C1522    C        0.47860    0.55300    0.50060    1.000
    C1523    C        0.27870    0.42690    0.42683    1.000
    H1011    H        0.32940    0.49060    0.43210    1.000
    H1012    H        0.22120    0.43400    0.45650    1.000
    C1524    C        0.21380    0.39500    0.44037    1.000
    C1525    C        0.45770    0.53090    0.51183    1.000
    H1013    H        0.39460    0.49890    0.52010    1.000
    H1014    H        0.50990    0.56200    0.49900    1.000
    C1526    C        0.23560    0.39210    0.42978    1.000
    H1015    H        0.29450    0.42420    0.41970    1.000
    H1016    H        0.18370    0.37060    0.44230    1.000
    C1527    C        0.48520    0.52490    0.52182    1.000
    C1528    C        0.20900    0.35020    0.42164    1.000
    H1017    H        0.49800    0.50590    0.51860    1.000
    H1018    H        0.51130    0.55540    0.52430    1.000
    O282     O        0.45740    0.50350    0.53226    1.000
    H1019    H        0.19760    0.32190    0.42680    1.000
    H1020    H        0.18210    0.35040    0.41780    1.000
    O283     O        0.23860    0.35110    0.41213    1.000
    C1529    C        0.47260    0.48230    0.54079    1.000
    C1530    C        0.22220    0.31450    0.40452    1.000
    C1531    C        0.51900    0.49450    0.54107    1.000
    C1532    C        0.44370    0.46190    0.55178    1.000
    C1533    C        0.17720    0.28040    0.40442    1.000
    C1534    C        0.25120    0.32000    0.39365    1.000
    H1021    H        0.54060    0.51710    0.53540    1.000
    C1535    C        0.53310    0.47280    0.54984    1.000
    C1536    C        0.45870    0.44180    0.56009    1.000
    C1537    C        0.39690    0.45310    0.55420    1.000
    C1538    C        0.16300    0.24460    0.39500    1.000
    H1022    H        0.15590    0.28020    0.41040    1.000
    C1539    C        0.23850    0.28590    0.38479    1.000
    C1540    C        0.29980    0.35640    0.39185    1.000
    H1023    H        0.56200    0.47410    0.54890    1.000
    C1541    C        0.50290    0.44850    0.56031    1.000
    C1542    C        0.42060    0.41200    0.56974    1.000
    H1024    H        0.38690    0.46870    0.54790    1.000
    C1543    C        0.39520    0.46620    0.56650    1.000
    C1544    C        0.36890    0.40240    0.55350    1.000
    C1545    C        0.19570    0.25020    0.38460    1.000
    H1025    H        0.13330    0.21790    0.39540    1.000
    C1546    C        0.27140    0.28880    0.37563    1.000
    H1026    H        0.31030    0.38160    0.39830    1.000
    C1547    C        0.32820    0.33610    0.39145    1.000
    C1548    C        0.29830    0.37320    0.37809    1.000
    O284     O        0.51410    0.42750    0.56906    1.000
    H1027    H        0.43030    0.39650    0.57620    1.000
    C1549    C        0.40860    0.44680    0.57550    1.000
    C1550    C        0.38010    0.37990    0.56240    1.000
    C1551    C        0.38090    0.49630    0.57060    1.000
    C1552    C        0.33090    0.37670    0.54550    1.000
    O285     O        0.17570    0.21310    0.37582    1.000
    H1028    H        0.26000    0.26120    0.37000    1.000
    C1553    C        0.31380    0.30010    0.38274    1.000
    C1554    C        0.28170    0.33400    0.36862    1.000
    C1555    C        0.36790    0.34780    0.39863    1.000
    C1556    C        0.31290    0.41770    0.37436    1.000
    C1557    C        0.55550    0.43550    0.56995    1.000
    C1558    C        0.40860    0.45930    0.58950    1.000
    C1559    C        0.36080    0.33710    0.56417    1.000
    C1560    C        0.38600    0.50830    0.58600    1.000
    H1029    H        0.36870    0.50940    0.56490    1.000
    C1561    C        0.30960    0.33140    0.54640    1.000
    H1030    H        0.32100    0.39150    0.53960    1.000
    C1562    C        0.12880    0.18430    0.37443    1.000
    C1563    C        0.33690    0.27830    0.38140    1.000
    C1564    C        0.28130    0.34450    0.35622    1.000
    H1031    H        0.37900    0.37350    0.40420    1.000
    C1565    C        0.39140    0.32470    0.39810    1.000
    H1032    H        0.32330    0.44210    0.38030    1.000
    C1566    C        0.31170    0.42560    0.36136    1.000
    H1033    H        0.57600    0.46910    0.57110    1.000
    H1034    H        0.56390    0.42710    0.56180    1.000
    C1567    C        0.56530    0.41100    0.58031    1.000
    H1035    H        0.41750    0.44500    0.59580    1.000
    C1568    C        0.39620    0.49040    0.59300    1.000
    H1036    H        0.37280    0.32500    0.57030    1.000
    C1569    C        0.32020    0.30630    0.55700    1.000
    H1037    H        0.37980    0.53150    0.58890    1.000
    H1038    H        0.28680    0.31350    0.54030    1.000
    H1039    H        0.11300    0.20260    0.37400    1.000
    H1040    H        0.11620    0.16300    0.38170    1.000
    C1570    C        0.12160    0.15820    0.36270    1.000
    C1571    C        0.37630    0.29190    0.38880    1.000
    H1041    H        0.32690    0.25350    0.37560    1.000
    C1572    C        0.29250    0.38680    0.35249    1.000
    H1042    H        0.27280    0.32100    0.35000    1.000
    H1043    H        0.41600    0.33060    0.40370    1.000
    H1044    H        0.32340    0.45610    0.35830    1.000
    C1573    C        0.53250    0.38970    0.58958    1.000
    C1574    C        0.60570    0.40780    0.58147    1.000
    H1045    H        0.39630    0.49710    0.60170    1.000
    H1046    H        0.30210    0.27410    0.55860    1.000
    C1575    C        0.07570    0.12300    0.35880    1.000
    C1576    C        0.15380    0.16860    0.35420    1.000
    H1047    H        0.39400    0.27740    0.38720    1.000
    H1048    H        0.28790    0.39190    0.34390    1.000
    H1049    H        0.50480    0.39080    0.58900    1.000
    C1577    C        0.53790    0.36650    0.59991    1.000
    C1578    C        0.61020    0.38540    0.59162    1.000
    H1050    H        0.62930    0.42100    0.57520    1.000
    H1051    H        0.04930    0.11350    0.36400    1.000
    C1579    C        0.07300    0.10400    0.34672    1.000
    C1580    C        0.14890    0.14160    0.34221    1.000
    H1052    H        0.18290    0.19550    0.35560    1.000
    H1053    H        0.51510    0.35330    0.60630    1.000
    C1581    C        0.57870    0.36340    0.60041    1.000
    H1054    H        0.63860    0.38570    0.59250    1.000
    H1055    H        0.04260    0.08280    0.34400    1.000
    C1582    C        0.10450    0.11030    0.33883    1.000
    H1056    H        0.17470    0.14600    0.33740    1.000
    C1583    C        0.58380    0.33650    0.61080    1.000
    C1584    C        0.09700    0.08160    0.32810    1.000
    O286     O        0.05690    0.06350    0.32421    1.000
    Zn51     Zn       0.04444    0.93212    0.79371    1.000
    O287     O        0.00717    0.95163    0.80236    1.000
    O288     O        0.07387    0.91483    0.80699    1.000
    O289     O        0.00797    0.87823    0.78419    1.000
    O290     O        0.09127    0.97393    0.78328    1.000
    Zn52     Zn       0.96407    0.89163    0.80993    1.000
    C1585    C        0.04767    0.89203    0.81604    1.000
    C1586    C        0.96587    0.84683    0.78766    1.000
    O291     O        0.00657    0.87743    0.81867    1.000
    O292     O        0.94087    0.84783    0.79651    1.000
    O293     O        0.91467    0.87243    0.82185    1.000
    O294     O        0.95807    0.94543    0.77944    1.000
    C1587    C        0.07527    0.88253    0.82626    1.000
    C1588    C        0.94327    0.80523    0.77871    1.000
    C1589    C        0.05357    0.85843    0.83777    1.000
    C1590    C        0.11997    0.89513    0.82511    1.000
    C1591    C        0.96607    0.79973    0.76764    1.000
    C1592    C        0.90217    0.76763    0.78206    1.000
    C1593    C        0.07727    0.84973    0.84616    1.000
    H1057    H        0.02217    0.84883    0.83933    1.000
    H1058    H        0.13557    0.91143    0.81763    1.000
    C1594    C        0.14527    0.88633    0.83393    1.000
    C1595    C        0.94537    0.76023    0.76016    1.000
    H1059    H        0.99607    0.82393    0.76543    1.000
    H1060    H        0.88787    0.76733    0.78983    1.000
    C1596    C        0.88047    0.72833    0.77370    1.000
    C1597    C        0.12437    0.86423    0.84516    1.000
    H1061    H        0.06127    0.83223    0.85343    1.000
    H1062    H        0.17657    0.89533    0.83233    1.000
    C1598    C        0.90227    0.72543    0.76311    1.000
    H1063    H        0.96117    0.75753    0.75303    1.000
    H1064    H        0.85037    0.70393    0.77563    1.000
    C1599    C        0.15187    0.85823    0.85515    1.000
    C1600    C        0.87567    0.68353    0.75497    1.000
    H1065    H        0.16467    0.83923    0.85193    1.000
    H1066    H        0.17797    0.88873    0.85763    1.000
    O295     O        0.12407    0.83683    0.86559    1.000
    H1067    H        0.86427    0.65523    0.76013    1.000
    H1068    H        0.84877    0.68373    0.75113    1.000
    O296     O        0.90527    0.68443    0.74546    1.000
    C1601    C        0.13927    0.81563    0.87412    1.000
    C1602    C        0.88887    0.64783    0.73785    1.000
    C1603    C        0.18567    0.82783    0.87440    1.000
    C1604    C        0.11037    0.79523    0.88511    1.000
    C1605    C        0.84387    0.61373    0.73775    1.000
    C1606    C        0.91787    0.65333    0.72698    1.000
    H1069    H        0.20727    0.85043    0.86873    1.000
    C1607    C        0.19977    0.80613    0.88317    1.000
    C1608    C        0.12537    0.77513    0.89342    1.000
    C1609    C        0.06357    0.78643    0.88753    1.000
    C1610    C        0.82967    0.57793    0.72833    1.000
    H1070    H        0.82257    0.61353    0.74373    1.000
    C1611    C        0.90517    0.61923    0.71812    1.000
    C1612    C        0.96647    0.68973    0.72518    1.000
    H1071    H        0.22867    0.80743    0.88223    1.000
    C1613    C        0.16957    0.78183    0.89364    1.000
    C1614    C        0.08727    0.74533    0.90307    1.000
    H1072    H        0.05357    0.80203    0.88123    1.000
    C1615    C        0.06187    0.79953    0.89983    1.000
    C1616    C        0.03557    0.73573    0.88683    1.000
    C1617    C        0.86237    0.58353    0.71793    1.000
    H1073    H        0.79997    0.55123    0.72873    1.000
    C1618    C        0.93807    0.62213    0.70896    1.000
    H1074    H        0.97697    0.71493    0.73163    1.000
    C1619    C        0.99487    0.66943    0.72478    1.000
    C1620    C        0.96497    0.70653    0.71142    1.000
    O297     O        0.18077    0.76083    0.90239    1.000
    H1075    H        0.09697    0.72983    0.90953    1.000
    C1621    C        0.07527    0.78013    0.90883    1.000
    C1622    C        0.04677    0.71323    0.89573    1.000
    C1623    C        0.04757    0.82963    0.90393    1.000
    C1624    C        0.99757    0.71003    0.87883    1.000
    O298     O        0.84237    0.54643    0.70915    1.000
    H1076    H        0.92667    0.59453    0.70333    1.000
    C1625    C        0.98047    0.63343    0.71607    1.000
    C1626    C        0.94837    0.66733    0.70195    1.000
    C1627    C        0.03457    0.68113    0.73196    1.000
    C1628    C        0.97957    0.75103    0.70769    1.000
    C1629    C        0.22217    0.76883    0.90328    1.000
    C1630    C        0.07527    0.79263    0.92283    1.000
    C1631    C        0.02747    0.67043    0.89750    1.000
    C1632    C        0.05267    0.84163    0.91933    1.000
    H1077    H        0.03537    0.84273    0.89823    1.000
    C1633    C        0.97627    0.66473    0.87973    1.000
    H1078    H        0.98767    0.72483    0.87293    1.000
    C1634    C        0.79547    0.51763    0.70776    1.000
    C1635    C        0.00357    0.61163    0.71473    1.000
    C1636    C        0.94797    0.67783    0.68955    1.000
    H1079    H        0.04567    0.70683    0.73753    1.000
    C1637    C        0.05807    0.65803    0.73143    1.000
    H1080    H        0.98997    0.77543    0.71363    1.000
    C1638    C        0.97837    0.75893    0.69469    1.000
    H1081    H        0.24267    0.80243    0.90443    1.000
    H1082    H        0.23057    0.76043    0.89513    1.000
    C1639    C        0.23197    0.74433    0.91364    1.000
    H1083    H        0.08417    0.77833    0.92913    1.000
    C1640    C        0.06287    0.82373    0.92633    1.000
    H1084    H        0.03947    0.65833    0.90363    1.000
    C1641    C        0.98687    0.63963    0.89033    1.000
    H1085    H        0.04647    0.86483    0.92223    1.000
    H1086    H        0.95347    0.64683    0.87363    1.000
    H1087    H        0.77967    0.53593    0.70733    1.000
    H1088    H        0.78287    0.49633    0.71503    1.000
    C1642    C        0.78827    0.49153    0.69603    1.000
    C1643    C        0.04297    0.62523    0.72213    1.000
    H1089    H        0.99357    0.58683    0.70893    1.000
    C1644    C        0.95917    0.72013    0.68582    1.000
    H1090    H        0.93947    0.65433    0.68333    1.000
    H1091    H        0.08267    0.66393    0.73703    1.000
    H1092    H        0.99007    0.78943    0.69163    1.000
    C1645    C        0.19917    0.72303    0.92291    1.000
    C1646    C        0.27237    0.74113    0.91480    1.000
    H1093    H        0.06297    0.83043    0.93503    1.000
    H1094    H        0.96877    0.60743    0.89193    1.000
    C1647    C        0.74237    0.45633    0.69213    1.000
    C1648    C        0.82047    0.50193    0.68753    1.000
    H1095    H        0.06067    0.61073    0.72053    1.000
    H1096    H        0.95457    0.72523    0.67723    1.000
    H1097    H        0.17147    0.72413    0.92233    1.000
    C1649    C        0.20457    0.69983    0.93324    1.000
    C1650    C        0.27687    0.71873    0.92495    1.000
    H1098    H        0.29597    0.75433    0.90853    1.000
    H1099    H        0.71597    0.44683    0.69733    1.000
    C1651    C        0.73967    0.43733    0.68005    1.000
    C1652    C        0.81557    0.47493    0.67554    1.000
    H1100    H        0.84957    0.52883    0.68893    1.000
    H1101    H        0.18177    0.68663    0.93963    1.000
    C1653    C        0.24537    0.69673    0.93374    1.000
    H1102    H        0.30527    0.71903    0.92583    1.000
    H1103    H        0.70927    0.41613    0.67733    1.000
    C1654    C        0.77117    0.44363    0.67216    1.000
    H1104    H        0.84137    0.47933    0.67073    1.000
    C1655    C        0.25047    0.66983    0.94413    1.000
    C1656    C        0.76367    0.41493    0.66143    1.000
    O299     O        0.72357    0.39683    0.65754    1.000
    Zn53     Zn       0.71110    0.26546    0.12705    1.000
    O300     O        0.67383    0.28497    0.13570    1.000
    O301     O        0.74053    0.24817    0.14033    1.000
    O302     O        0.67463    0.21157    0.11753    1.000
    O303     O        0.75793    0.30727    0.11662    1.000
    Zn54     Zn       0.63073    0.22497    0.14327    1.000
    C1657    C        0.71433    0.22537    0.14938    1.000
    C1658    C        0.63253    0.18017    0.12100    1.000
    O304     O        0.67323    0.21077    0.15201    1.000
    O305     O        0.60753    0.18117    0.12985    1.000
    O306     O        0.58133    0.20577    0.15519    1.000
    O307     O        0.62473    0.27877    0.11278    1.000
    C1659    C        0.74193    0.21587    0.15960    1.000
    C1660    C        0.60993    0.13857    0.11205    1.000
    C1661    C        0.72023    0.19177    0.17111    1.000
    C1662    C        0.78663    0.22847    0.15845    1.000
    C1663    C        0.63273    0.13307    0.10098    1.000
    C1664    C        0.56883    0.10097    0.11540    1.000
    C1665    C        0.74393    0.18307    0.17950    1.000
    H1105    H        0.68883    0.18217    0.17267    1.000
    H1106    H        0.80223    0.24477    0.15097    1.000
    C1666    C        0.81193    0.21967    0.16727    1.000
    C1667    C        0.61203    0.09357    0.09350    1.000
    H1107    H        0.66273    0.15727    0.09877    1.000
    H1108    H        0.55453    0.10067    0.12317    1.000
    C1668    C        0.54713    0.06167    0.10704    1.000
    C1669    C        0.79103    0.19757    0.17850    1.000
    H1109    H        0.72793    0.16557    0.18677    1.000
    H1110    H        0.84323    0.22867    0.16567    1.000
    C1670    C        0.56893    0.05877    0.09645    1.000
    H1111    H        0.62783    0.09087    0.08637    1.000
    H1112    H        0.51703    0.03727    0.10897    1.000
    C1671    C        0.81853    0.19157    0.18849    1.000
    C1672    C        0.54233    0.01687    0.08831    1.000
    H1113    H        0.83133    0.17257    0.18527    1.000
    H1114    H        0.84463    0.22207    0.19097    1.000
    O308     O        0.79073    0.17017    0.19893    1.000
    H1115    H        0.53093    0.98857    0.09347    1.000
    H1116    H        0.51543    0.01707    0.08447    1.000
    O309     O        0.57193    0.01777    0.07880    1.000
    C1673    C        0.80593    0.14897    0.20746    1.000
    C1674    C        0.55553    0.98117    0.07119    1.000
    C1675    C        0.85233    0.16117    0.20774    1.000
    C1676    C        0.77703    0.12857    0.21845    1.000
    C1677    C        0.51053    0.94707    0.07109    1.000
    C1678    C        0.58453    0.98667    0.06032    1.000
    H1117    H        0.87393    0.18377    0.20207    1.000
    C1679    C        0.86643    0.13947    0.21651    1.000
    C1680    C        0.79203    0.10847    0.22676    1.000
    C1681    C        0.73023    0.11977    0.22087    1.000
    C1682    C        0.49633    0.91127    0.06167    1.000
    H1118    H        0.48923    0.94687    0.07707    1.000
    C1683    C        0.57183    0.95257    0.05146    1.000
    C1684    C        0.63313    0.02307    0.05852    1.000
    H1119    H        0.89533    0.14077    0.21557    1.000
    C1685    C        0.83623    0.11517    0.22698    1.000
    C1686    C        0.75393    0.07867    0.23641    1.000
    H1120    H        0.72023    0.13537    0.21457    1.000
    C1687    C        0.72853    0.13287    0.23317    1.000
    C1688    C        0.70223    0.06907    0.22017    1.000
    C1689    C        0.52903    0.91687    0.05127    1.000
    H1121    H        0.46663    0.88457    0.06207    1.000
    C1690    C        0.60473    0.95547    0.04230    1.000
    H1122    H        0.64363    0.04827    0.06497    1.000
    C1691    C        0.66153    0.00277    0.05812    1.000
    C1692    C        0.63163    0.03987    0.04476    1.000
    O310     O        0.84743    0.09417    0.23573    1.000
    H1123    H        0.76363    0.06317    0.24287    1.000
    C1693    C        0.74193    0.11347    0.24217    1.000
    C1694    C        0.71343    0.04657    0.22907    1.000
    C1695    C        0.71423    0.16297    0.23727    1.000
    C1696    C        0.66423    0.04337    0.21217    1.000
    O311     O        0.50903    0.87977    0.04249    1.000
    H1124    H        0.59333    0.92787    0.03667    1.000
    C1697    C        0.64713    0.96677    0.04941    1.000
    C1698    C        0.61503    0.00067    0.03529    1.000
    C1699    C        0.70123    0.01447    0.06530    1.000
    C1700    C        0.64623    0.08437    0.04103    1.000
    C1701    C        0.88883    0.10217    0.23662    1.000
    C1702    C        0.74193    0.12597    0.25617    1.000
    C1703    C        0.69413    0.00377    0.23084    1.000
    C1704    C        0.71933    0.17497    0.25267    1.000
    H1125    H        0.70203    0.17607    0.23157    1.000
    C1705    C        0.64293    0.99807    0.21307    1.000
    H1126    H        0.65433    0.05817    0.20627    1.000
    C1706    C        0.46213    0.85097    0.04110    1.000
    C1707    C        0.67023    0.94497    0.04807    1.000
    C1708    C        0.61463    0.01117    0.02289    1.000
    H1127    H        0.71233    0.04017    0.07087    1.000
    C1709    C        0.72473    0.99137    0.06477    1.000
    H1128    H        0.65663    0.10877    0.04697    1.000
    C1710    C        0.64503    0.09227    0.02803    1.000
    H1129    H        0.90933    0.13577    0.23777    1.000
    H1130    H        0.89723    0.09377    0.22847    1.000
    C1711    C        0.89863    0.07767    0.24698    1.000
    H1131    H        0.75083    0.11167    0.26247    1.000
    C1712    C        0.72953    0.15707    0.25967    1.000
    H1132    H        0.70613    0.99167    0.23697    1.000
    C1713    C        0.65353    0.97297    0.22367    1.000
    H1133    H        0.71313    0.19817    0.25557    1.000
    H1134    H        0.62013    0.98017    0.20697    1.000
    H1135    H        0.44633    0.86927    0.04067    1.000
    H1136    H        0.44953    0.82967    0.04837    1.000
    C1714    C        0.45493    0.82487    0.02937    1.000
    C1715    C        0.70963    0.95857    0.05547    1.000
    H1137    H        0.66023    0.92017    0.04227    1.000
    C1716    C        0.62583    0.05347    0.01916    1.000
    H1138    H        0.60613    0.98767    0.01667    1.000
    H1139    H        0.74933    0.99727    0.07037    1.000
    H1140    H        0.65673    0.12277    0.02497    1.000
    C1717    C        0.86583    0.05637    0.25625    1.000
    C1718    C        0.93903    0.07447    0.24814    1.000
    H1141    H        0.72963    0.16377    0.26837    1.000
    H1142    H        0.63543    0.94077    0.22527    1.000
    C1719    C        0.40903    0.78967    0.02547    1.000
    C1720    C        0.48713    0.83527    0.02087    1.000
    H1143    H        0.72733    0.94407    0.05387    1.000
    H1144    H        0.62123    0.05857    0.01057    1.000
    H1145    H        0.83813    0.05747    0.25567    1.000
    C1721    C        0.87123    0.03317    0.26658    1.000
    C1722    C        0.94353    0.05207    0.25829    1.000
    H1146    H        0.96263    0.08767    0.24187    1.000
    H1147    H        0.38263    0.78017    0.03067    1.000
    C1723    C        0.40633    0.77067    0.01339    1.000
    C1724    C        0.48223    0.80827    0.00888    1.000
    H1148    H        0.51623    0.86217    0.02227    1.000
    H1149    H        0.84843    0.01997    0.27297    1.000
    C1725    C        0.91203    0.03007    0.26708    1.000
    H1150    H        0.97193    0.05237    0.25917    1.000
    H1151    H        0.37593    0.74947    0.01067    1.000
    C1726    C        0.43783    0.77697    0.00550    1.000
    H1152    H        0.50803    0.81267    0.00407    1.000
    C1727    C        0.91713    0.00317    0.27747    1.000
    C1728    C        0.43033    0.74827    0.99477    1.000
    O312     O        0.39023    0.73017    0.99088    1.000
    Zn55     Zn       0.22102    0.62223    0.46038    1.000
    O313     O        0.27780    0.65950    0.46903    1.000
    O314     O        0.17430    0.59280    0.47366    1.000
    O315     O        0.20360    0.65870    0.45086    1.000
    O316     O        0.21600    0.57540    0.44995    1.000
    Zn56     Zn       0.26090    0.70260    0.47660    1.000
    C1729    C        0.17770    0.61900    0.48271    1.000
    C1730    C        0.21430    0.70080    0.45433    1.000
    O317     O        0.20420    0.66010    0.48534    1.000
    O318     O        0.24030    0.72580    0.46318    1.000
    O319     O        0.29110    0.75200    0.48852    1.000
    O320     O        0.32070    0.70860    0.44611    1.000
    C1731    C        0.14060    0.59140    0.49293    1.000
    C1732    C        0.19530    0.72340    0.44538    1.000
    C1733    C        0.13820    0.61310    0.50444    1.000
    C1734    C        0.10850    0.54670    0.49178    1.000
    C1735    C        0.16700    0.70060    0.43431    1.000
    C1736    C        0.19880    0.76450    0.44873    1.000
    C1737    C        0.10580    0.58940    0.51283    1.000
    H1153    H        0.16000    0.64450    0.50600    1.000
    H1154    H        0.10920    0.53110    0.48430    1.000
    C1738    C        0.07440    0.52140    0.50060    1.000
    C1739    C        0.14820    0.72130    0.42683    1.000
    H1155    H        0.16120    0.67060    0.43210    1.000
    H1156    H        0.21280    0.77880    0.45650    1.000
    C1740    C        0.18120    0.78620    0.44037    1.000
    C1741    C        0.07320    0.54230    0.51183    1.000
    H1157    H        0.10430    0.60540    0.52010    1.000
    H1158    H        0.05210    0.49010    0.49900    1.000
    C1742    C        0.15650    0.76440    0.42978    1.000
    H1159    H        0.12970    0.70550    0.41970    1.000
    H1160    H        0.18690    0.81630    0.44230    1.000
    C1743    C        0.03970    0.51480    0.52182    1.000
    C1744    C        0.14120    0.79100    0.42164    1.000
    H1161    H        0.00790    0.50200    0.51860    1.000
    H1162    H        0.04410    0.48870    0.52430    1.000
    O321     O        0.04610    0.54260    0.53226    1.000
    H1163    H        0.12430    0.80240    0.42680    1.000
    H1164    H        0.16830    0.81790    0.41780    1.000
    O322     O        0.11250    0.76140    0.41213    1.000
    C1745    C        0.00970    0.52740    0.54079    1.000
    C1746    C        0.09230    0.77780    0.40452    1.000
    C1747    C        0.97550    0.48100    0.54107    1.000
    C1748    C        0.01820    0.55630    0.55178    1.000
    C1749    C        0.10320    0.82280    0.40442    1.000
    C1750    C        0.06880    0.74880    0.39365    1.000
    H1165    H        0.97650    0.45940    0.53540    1.000
    C1751    C        0.93970    0.46690    0.54984    1.000
    C1752    C        0.98310    0.54130    0.56009    1.000
    C1753    C        0.05620    0.60310    0.55420    1.000
    C1754    C        0.08160    0.83700    0.39500    1.000
    H1166    H        0.12430    0.84410    0.41040    1.000
    C1755    C        0.04740    0.76150    0.38479    1.000
    C1756    C        0.05660    0.70020    0.39185    1.000
    H1167    H        0.91210    0.43800    0.54890    1.000
    C1757    C        0.94560    0.49710    0.56031    1.000
    C1758    C        0.99140    0.57940    0.56974    1.000
    H1168    H        0.08180    0.61310    0.54790    1.000
    C1759    C        0.07100    0.60480    0.56650    1.000
    C1760    C        0.03350    0.63110    0.55350    1.000
    C1761    C        0.05450    0.80430    0.38460    1.000
    H1169    H        0.08460    0.86670    0.39540    1.000
    C1762    C        0.01740    0.72860    0.37563    1.000
    H1170    H        0.07130    0.68970    0.39830    1.000
    C1763    C        0.00790    0.67180    0.39145    1.000
    C1764    C        0.07490    0.70170    0.37809    1.000
    O323     O        0.91340    0.48590    0.56906    1.000
    H1171    H        0.96620    0.56970    0.57620    1.000
    C1765    C        0.03820    0.59140    0.57550    1.000
    C1766    C        0.99980    0.61990    0.56240    1.000
    C1767    C        0.11540    0.61910    0.57060    1.000
    C1768    C        0.04580    0.66910    0.54550    1.000
    O324     O        0.03740    0.82430    0.37582    1.000
    H1172    H        0.00120    0.74000    0.37000    1.000
    C1769    C        0.98630    0.68620    0.38274    1.000
    C1770    C        0.05230    0.71830    0.36862    1.000
    C1771    C        0.97990    0.63210    0.39863    1.000
    C1772    C        0.10480    0.68710    0.37436    1.000
    C1773    C        0.88000    0.44450    0.56995    1.000
    C1774    C        0.05070    0.59140    0.58950    1.000
    C1775    C        0.97630    0.63920    0.56417    1.000
    C1776    C        0.12230    0.61400    0.58600    1.000
    H1173    H        0.14070    0.63130    0.56490    1.000
    C1777    C        0.02180    0.69040    0.54640    1.000
    H1174    H        0.07050    0.67900    0.53960    1.000
    C1778    C        0.05550    0.87120    0.37443    1.000
    C1779    C        0.94140    0.66310    0.38140    1.000
    C1780    C        0.06320    0.71870    0.35622    1.000
    H1175    H        0.99450    0.62100    0.40420    1.000
    C1781    C        0.93330    0.60860    0.39810    1.000
    H1176    H        0.11880    0.67670    0.38030    1.000
    C1782    C        0.11390    0.68830    0.36136    1.000
    H1177    H        0.89310    0.42400    0.57110    1.000
    H1178    H        0.86320    0.43610    0.56180    1.000
    C1783    C        0.84570    0.43470    0.58031    1.000
    H1179    H        0.02750    0.58250    0.59580    1.000
    C1784    C        0.09420    0.60380    0.59300    1.000
    H1180    H        0.95220    0.62720    0.57030    1.000
    C1785    C        0.98610    0.67980    0.55700    1.000
    H1181    H        0.15170    0.62020    0.58890    1.000
    H1182    H        0.02670    0.71320    0.54030    1.000
    H1183    H        0.08960    0.88700    0.37400    1.000
    H1184    H        0.04680    0.88380    0.38170    1.000
    C1786    C        0.03660    0.87840    0.36270    1.000
    C1787    C        0.91560    0.62370    0.38880    1.000
    H1185    H        0.92660    0.67310    0.37560    1.000
    C1788    C        0.09430    0.70750    0.35249    1.000
    H1186    H        0.04820    0.72720    0.35000    1.000
    H1187    H        0.91460    0.58400    0.40370    1.000
    H1188    H        0.13270    0.67660    0.35830    1.000
    C1789    C        0.85720    0.46750    0.58958    1.000
    C1790    C        0.80210    0.39430    0.58147    1.000
    H1189    H        0.10080    0.60370    0.60170    1.000
    H1190    H        0.97200    0.69790    0.55860    1.000
    C1791    C        0.04730    0.92430    0.35880    1.000
    C1792    C        0.01480    0.84620    0.35420    1.000
    H1191    H        0.88340    0.60600    0.38720    1.000
    H1192    H        0.10400    0.71210    0.34390    1.000
    H1193    H        0.88600    0.49520    0.58900    1.000
    C1793    C        0.82860    0.46210    0.59991    1.000
    C1794    C        0.77520    0.38980    0.59162    1.000
    H1194    H        0.79170    0.37070    0.57520    1.000
    H1195    H        0.06420    0.95070    0.36400    1.000
    C1795    C        0.03100    0.92700    0.34672    1.000
    C1796    C        0.99270    0.85110    0.34221    1.000
    H1196    H        0.01260    0.81710    0.35560    1.000
    H1197    H        0.83820    0.48490    0.60630    1.000
    C1797    C        0.78470    0.42130    0.60041    1.000
    H1198    H        0.74710    0.36140    0.59250    1.000
    H1199    H        0.04020    0.95740    0.34400    1.000
    C1798    C        0.00580    0.89550    0.33883    1.000
    H1200    H        0.97130    0.82530    0.33740    1.000
    C1799    C        0.75270    0.41620    0.61080    1.000
    C1800    C        0.98460    0.90300    0.32810    1.000
    O325     O        0.00660    0.94310    0.32421    1.000
    Zn57     Zn       0.88769    0.95556    0.79371    1.000
    O326     O        0.94447    0.99283    0.80236    1.000
    O327     O        0.84097    0.92613    0.80699    1.000
    O328     O        0.87027    0.99203    0.78419    1.000
    O329     O        0.88267    0.90873    0.78328    1.000
    Zn58     Zn       0.92757    0.03593    0.80993    1.000
    C1801    C        0.84437    0.95233    0.81604    1.000
    C1802    C        0.88097    0.03413    0.78766    1.000
    O330     O        0.87087    0.99343    0.81867    1.000
    O331     O        0.90697    0.05913    0.79651    1.000
    O332     O        0.95777    0.08533    0.82185    1.000
    O333     O        0.98737    0.04193    0.77944    1.000
    C1803    C        0.80727    0.92473    0.82626    1.000
    C1804    C        0.86197    0.05673    0.77871    1.000
    C1805    C        0.80487    0.94643    0.83777    1.000
    C1806    C        0.77517    0.88003    0.82511    1.000
    C1807    C        0.83367    0.03393    0.76764    1.000
    C1808    C        0.86547    0.09783    0.78206    1.000
    C1809    C        0.77247    0.92273    0.84616    1.000
    H1201    H        0.82667    0.97783    0.83933    1.000
    H1202    H        0.77587    0.86443    0.81763    1.000
    C1810    C        0.74107    0.85473    0.83393    1.000
    C1811    C        0.81487    0.05463    0.76016    1.000
    H1203    H        0.82787    0.00393    0.76543    1.000
    H1204    H        0.87947    0.11213    0.78983    1.000
    C1812    C        0.84787    0.11953    0.77370    1.000
    C1813    C        0.73987    0.87563    0.84516    1.000
    H1205    H        0.77097    0.93873    0.85343    1.000
    H1206    H        0.71877    0.82343    0.83233    1.000
    C1814    C        0.82317    0.09773    0.76311    1.000
    H1207    H        0.79637    0.03883    0.75303    1.000
    H1208    H        0.85357    0.14963    0.77563    1.000
    C1815    C        0.70637    0.84813    0.85515    1.000
    C1816    C        0.80787    0.12433    0.75497    1.000
    H1209    H        0.67457    0.83533    0.85193    1.000
    H1210    H        0.71077    0.82203    0.85763    1.000
    O334     O        0.71277    0.87593    0.86559    1.000
    H1211    H        0.79097    0.13573    0.76013    1.000
    H1212    H        0.83497    0.15123    0.75113    1.000
    O335     O        0.77917    0.09473    0.74546    1.000
    C1817    C        0.67637    0.86073    0.87412    1.000
    C1818    C        0.75897    0.11113    0.73785    1.000
    C1819    C        0.64217    0.81433    0.87440    1.000
    C1820    C        0.68487    0.88963    0.88511    1.000
    C1821    C        0.76987    0.15613    0.73775    1.000
    C1822    C        0.73547    0.08213    0.72698    1.000
    H1213    H        0.64317    0.79273    0.86873    1.000
    C1823    C        0.60637    0.80023    0.88317    1.000
    C1824    C        0.64977    0.87463    0.89342    1.000
    C1825    C        0.72287    0.93643    0.88753    1.000
    C1826    C        0.74827    0.17033    0.72833    1.000
    H1214    H        0.79097    0.17743    0.74373    1.000
    C1827    C        0.71407    0.09483    0.71812    1.000
    C1828    C        0.72327    0.03353    0.72518    1.000
    H1215    H        0.57877    0.77133    0.88223    1.000
    C1829    C        0.61227    0.83043    0.89364    1.000
    C1830    C        0.65807    0.91273    0.90307    1.000
    H1216    H        0.74847    0.94643    0.88123    1.000
    C1831    C        0.73767    0.93813    0.89983    1.000
    C1832    C        0.70017    0.96443    0.88683    1.000
    C1833    C        0.72117    0.13763    0.71793    1.000
    H1217    H        0.75127    0.20003    0.72873    1.000
    C1834    C        0.68407    0.06193    0.70896    1.000
    H1218    H        0.73797    0.02303    0.73163    1.000
    C1835    C        0.67457    0.00513    0.72478    1.000
    C1836    C        0.74157    0.03503    0.71142    1.000
    O336     O        0.58007    0.81923    0.90239    1.000
    H1219    H        0.63287    0.90303    0.90953    1.000
    C1837    C        0.70487    0.92473    0.90883    1.000
    C1838    C        0.66647    0.95323    0.89573    1.000
    C1839    C        0.78207    0.95243    0.90393    1.000
    C1840    C        0.71247    0.00243    0.87883    1.000
    O337     O        0.70407    0.15763    0.70915    1.000
    H1220    H        0.66787    0.07333    0.70333    1.000
    C1841    C        0.65297    0.01953    0.71607    1.000
    C1842    C        0.71897    0.05163    0.70195    1.000
    C1843    C        0.64657    0.96543    0.73196    1.000
    C1844    C        0.77147    0.02043    0.70769    1.000
    C1845    C        0.54667    0.77783    0.90328    1.000
    C1846    C        0.71737    0.92473    0.92283    1.000
    C1847    C        0.64297    0.97253    0.89750    1.000
    C1848    C        0.78897    0.94733    0.91933    1.000
    H1221    H        0.80737    0.96463    0.89823    1.000
    C1849    C        0.68847    0.02373    0.87973    1.000
    H1222    H        0.73717    0.01233    0.87293    1.000
    C1850    C        0.72217    0.20453    0.70776    1.000
    C1851    C        0.60807    0.99643    0.71473    1.000
    C1852    C        0.72987    0.05203    0.68955    1.000
    H1223    H        0.66117    0.95433    0.73753    1.000
    C1853    C        0.59997    0.94193    0.73143    1.000
    H1224    H        0.78547    0.01003    0.71363    1.000
    C1854    C        0.78057    0.02163    0.69469    1.000
    H1225    H        0.55977    0.75733    0.90443    1.000
    H1226    H        0.52987    0.76943    0.89513    1.000
    C1855    C        0.51237    0.76803    0.91364    1.000
    H1227    H        0.69417    0.91583    0.92913    1.000
    C1856    C        0.76087    0.93713    0.92633    1.000
    H1228    H        0.61887    0.96053    0.90363    1.000
    C1857    C        0.65277    0.01313    0.89033    1.000
    H1229    H        0.81837    0.95353    0.92223    1.000
    H1230    H        0.69337    0.04653    0.87363    1.000
    H1231    H        0.75627    0.22033    0.70733    1.000
    H1232    H        0.71347    0.21713    0.71503    1.000
    C1858    C        0.70327    0.21173    0.69603    1.000
    C1859    C        0.58227    0.95703    0.72213    1.000
    H1233    H        0.59327    0.00643    0.70893    1.000
    C1860    C        0.76097    0.04083    0.68582    1.000
    H1234    H        0.71487    0.06053    0.68333    1.000
    H1235    H        0.58127    0.91733    0.73703    1.000
    H1236    H        0.79937    0.00993    0.69163    1.000
    C1861    C        0.52387    0.80083    0.92291    1.000
    C1862    C        0.46877    0.72763    0.91480    1.000
    H1237    H        0.76747    0.93703    0.93503    1.000
    H1238    H        0.63867    0.03123    0.89193    1.000
    C1863    C        0.71397    0.25763    0.69213    1.000
    C1864    C        0.68147    0.17953    0.68753    1.000
    H1239    H        0.55007    0.93933    0.72053    1.000
    H1240    H        0.77067    0.04543    0.67723    1.000
    H1241    H        0.55267    0.82853    0.92233    1.000
    C1865    C        0.49527    0.79543    0.93324    1.000
    C1866    C        0.44187    0.72313    0.92495    1.000
    H1242    H        0.45837    0.70403    0.90853    1.000
    H1243    H        0.73087    0.28403    0.69733    1.000
    C1867    C        0.69767    0.26033    0.68005    1.000
    C1868    C        0.65937    0.18443    0.67554    1.000
    H1244    H        0.67927    0.15043    0.68893    1.000
    H1245    H        0.50487    0.81823    0.93963    1.000
    C1869    C        0.45137    0.75463    0.93374    1.000
    H1246    H        0.41377    0.69473    0.92583    1.000
    H1247    H        0.70687    0.29073    0.67733    1.000
    C1870    C        0.67247    0.22883    0.67216    1.000
    H1248    H        0.63797    0.15863    0.67073    1.000
    C1871    C        0.41937    0.74953    0.94413    1.000
    C1872    C        0.65127    0.23633    0.66143    1.000
    O338     O        0.67327    0.27643    0.65754    1.000
    Zn59     Zn       0.55435    0.28890    0.12705    1.000
    O339     O        0.61113    0.32617    0.13570    1.000
    O340     O        0.50763    0.25947    0.14033    1.000
    O341     O        0.53693    0.32537    0.11753    1.000
    O342     O        0.54933    0.24207    0.11662    1.000
    Zn60     Zn       0.59423    0.36927    0.14327    1.000
    C1873    C        0.51103    0.28567    0.14938    1.000
    C1874    C        0.54763    0.36747    0.12100    1.000
    O343     O        0.53753    0.32677    0.15201    1.000
    O344     O        0.57363    0.39247    0.12985    1.000
    O345     O        0.62443    0.41867    0.15519    1.000
    O346     O        0.65403    0.37527    0.11278    1.000
    C1875    C        0.47393    0.25807    0.15960    1.000
    C1876    C        0.52863    0.39007    0.11205    1.000
    C1877    C        0.47153    0.27977    0.17111    1.000
    C1878    C        0.44183    0.21337    0.15845    1.000
    C1879    C        0.50033    0.36727    0.10098    1.000
    C1880    C        0.53213    0.43117    0.11540    1.000
    C1881    C        0.43913    0.25607    0.17950    1.000
    H1249    H        0.49333    0.31117    0.17267    1.000
    H1250    H        0.44253    0.19777    0.15097    1.000
    C1882    C        0.40773    0.18807    0.16727    1.000
    C1883    C        0.48153    0.38797    0.09350    1.000
    H1251    H        0.49453    0.33727    0.09877    1.000
    H1252    H        0.54613    0.44547    0.12317    1.000
    C1884    C        0.51453    0.45287    0.10704    1.000
    C1885    C        0.40653    0.20897    0.17850    1.000
    H1253    H        0.43763    0.27207    0.18677    1.000
    H1254    H        0.38543    0.15677    0.16567    1.000
    C1886    C        0.48983    0.43107    0.09645    1.000
    H1255    H        0.46303    0.37217    0.08637    1.000
    H1256    H        0.52023    0.48297    0.10897    1.000
    C1887    C        0.37303    0.18147    0.18849    1.000
    C1888    C        0.47453    0.45767    0.08831    1.000
    H1257    H        0.34123    0.16867    0.18527    1.000
    H1258    H        0.37743    0.15537    0.19097    1.000
    O347     O        0.37943    0.20927    0.19893    1.000
    H1259    H        0.45763    0.46907    0.09347    1.000
    H1260    H        0.50163    0.48457    0.08447    1.000
    O348     O        0.44583    0.42807    0.07880    1.000
    C1889    C        0.34303    0.19407    0.20746    1.000
    C1890    C        0.42563    0.44447    0.07119    1.000
    C1891    C        0.30883    0.14767    0.20774    1.000
    C1892    C        0.35153    0.22297    0.21845    1.000
    C1893    C        0.43653    0.48947    0.07109    1.000
    C1894    C        0.40213    0.41547    0.06032    1.000
    H1261    H        0.30983    0.12607    0.20207    1.000
    C1895    C        0.27303    0.13357    0.21651    1.000
    C1896    C        0.31643    0.20797    0.22676    1.000
    C1897    C        0.38953    0.26977    0.22087    1.000
    C1898    C        0.41493    0.50367    0.06167    1.000
    H1262    H        0.45763    0.51077    0.07707    1.000
    C1899    C        0.38073    0.42817    0.05146    1.000
    C1900    C        0.38993    0.36687    0.05852    1.000
    H1263    H        0.24543    0.10467    0.21557    1.000
    C1901    C        0.27893    0.16377    0.22698    1.000
    C1902    C        0.32473    0.24607    0.23641    1.000
    H1264    H        0.41513    0.27977    0.21457    1.000
    C1903    C        0.40433    0.27147    0.23317    1.000
    C1904    C        0.36683    0.29777    0.22017    1.000
    C1905    C        0.38783    0.47097    0.05127    1.000
    H1265    H        0.41793    0.53337    0.06207    1.000
    C1906    C        0.35073    0.39527    0.04230    1.000
    H1266    H        0.40463    0.35637    0.06497    1.000
    C1907    C        0.34123    0.33847    0.05812    1.000
    C1908    C        0.40823    0.36837    0.04476    1.000
    O349     O        0.24673    0.15257    0.23573    1.000
    H1267    H        0.29953    0.23637    0.24287    1.000
    C1909    C        0.37153    0.25807    0.24217    1.000
    C1910    C        0.33313    0.28657    0.22907    1.000
    C1911    C        0.44873    0.28577    0.23727    1.000
    C1912    C        0.37913    0.33577    0.21217    1.000
    O350     O        0.37073    0.49097    0.04249    1.000
    H1268    H        0.33453    0.40667    0.03667    1.000
    C1913    C        0.31963    0.35287    0.04941    1.000
    C1914    C        0.38563    0.38497    0.03529    1.000
    C1915    C        0.31323    0.29877    0.06530    1.000
    C1916    C        0.43813    0.35377    0.04103    1.000
    C1917    C        0.21333    0.11117    0.23662    1.000
    C1918    C        0.38403    0.25807    0.25617    1.000
    C1919    C        0.30963    0.30587    0.23084    1.000
    C1920    C        0.45563    0.28067    0.25267    1.000
    H1269    H        0.47403    0.29797    0.23157    1.000
    C1921    C        0.35513    0.35707    0.21307    1.000
    H1270    H        0.40383    0.34567    0.20627    1.000
    C1922    C        0.38883    0.53787    0.04110    1.000
    C1923    C        0.27473    0.32977    0.04807    1.000
    C1924    C        0.39653    0.38537    0.02289    1.000
    H1271    H        0.32783    0.28767    0.07087    1.000
    C1925    C        0.26663    0.27527    0.06477    1.000
    H1272    H        0.45213    0.34337    0.04697    1.000
    C1926    C        0.44723    0.35497    0.02803    1.000
    H1273    H        0.22643    0.09067    0.23777    1.000
    H1274    H        0.19653    0.10277    0.22847    1.000
    C1927    C        0.17903    0.10137    0.24698    1.000
    H1275    H        0.36083    0.24917    0.26247    1.000
    C1928    C        0.42753    0.27047    0.25967    1.000
    H1276    H        0.28553    0.29387    0.23697    1.000
    C1929    C        0.31943    0.34647    0.22367    1.000
    H1277    H        0.48503    0.28687    0.25557    1.000
    H1278    H        0.36003    0.37987    0.20697    1.000
    H1279    H        0.42293    0.55367    0.04067    1.000
    H1280    H        0.38013    0.55047    0.04837    1.000
    C1930    C        0.36993    0.54507    0.02937    1.000
    C1931    C        0.24893    0.29037    0.05547    1.000
    H1281    H        0.25993    0.33977    0.04227    1.000
    C1932    C        0.42763    0.37417    0.01916    1.000
    H1282    H        0.38153    0.39387    0.01667    1.000
    H1283    H        0.24793    0.25067    0.07037    1.000
    H1284    H        0.46603    0.34327    0.02497    1.000
    C1933    C        0.19053    0.13417    0.25625    1.000
    C1934    C        0.13543    0.06097    0.24814    1.000
    H1285    H        0.43413    0.27037    0.26837    1.000
    H1286    H        0.30533    0.36457    0.22527    1.000
    C1935    C        0.38063    0.59097    0.02547    1.000
    C1936    C        0.34813    0.51287    0.02087    1.000
    H1287    H        0.21673    0.27267    0.05387    1.000
    H1288    H        0.43733    0.37877    0.01057    1.000
    H1289    H        0.21933    0.16187    0.25567    1.000
    C1937    C        0.16193    0.12877    0.26658    1.000
    C1938    C        0.10853    0.05647    0.25829    1.000
    H1290    H        0.12503    0.03737    0.24187    1.000
    H1291    H        0.39753    0.61737    0.03067    1.000
    C1939    C        0.36433    0.59367    0.01339    1.000
    C1940    C        0.32603    0.51777    0.00888    1.000
    H1292    H        0.34593    0.48377    0.02227    1.000
    H1293    H        0.17153    0.15157    0.27297    1.000
    C1941    C        0.11803    0.08797    0.26708    1.000
    H1294    H        0.08043    0.02807    0.25917    1.000
    H1295    H        0.37353    0.62407    0.01067    1.000
    C1942    C        0.33913    0.56217    0.00550    1.000
    H1296    H        0.30463    0.49197    0.00407    1.000
    C1943    C        0.08603    0.08287    0.27747    1.000
    C1944    C        0.31793    0.56967    0.99477    1.000
    O351     O        0.33993    0.60977    0.99088    1.000
    Zn61     Zn       0.22102    0.59879    0.96038    1.000
    O352     O        0.27780    0.61830    0.96903    1.000
    O353     O        0.17430    0.58150    0.97366    1.000
    O354     O        0.20360    0.54490    0.95086    1.000
    O355     O        0.21600    0.64060    0.94995    1.000
    Zn62     Zn       0.26090    0.55830    0.97660    1.000
    C1945    C        0.17770    0.55870    0.98271    1.000
    C1946    C        0.21430    0.51350    0.95433    1.000
    O356     O        0.20420    0.54410    0.98534    1.000
    O357     O        0.24030    0.51450    0.96318    1.000
    O358     O        0.29110    0.53910    0.98852    1.000
    O359     O        0.32070    0.61210    0.94611    1.000
    C1947    C        0.14060    0.54920    0.99293    1.000
    C1948    C        0.19530    0.47190    0.94538    1.000
    C1949    C        0.13820    0.52510    0.00444    1.000
    C1950    C        0.10850    0.56180    0.99178    1.000
    C1951    C        0.16700    0.46640    0.93431    1.000
    C1952    C        0.19880    0.43430    0.94873    1.000
    C1953    C        0.10580    0.51640    0.01283    1.000
    H1297    H        0.16000    0.51550    0.00600    1.000
    H1298    H        0.10920    0.57810    0.98430    1.000
    C1954    C        0.07440    0.55300    0.00060    1.000
    C1955    C        0.14820    0.42690    0.92683    1.000
    H1299    H        0.16120    0.49060    0.93210    1.000
    H1300    H        0.21280    0.43400    0.95650    1.000
    C1956    C        0.18120    0.39500    0.94037    1.000
    C1957    C        0.07320    0.53090    0.01183    1.000
    H1301    H        0.10430    0.49890    0.02010    1.000
    H1302    H        0.05210    0.56200    0.99900    1.000
    C1958    C        0.15650    0.39210    0.92978    1.000
    H1303    H        0.12970    0.42420    0.91970    1.000
    H1304    H        0.18690    0.37060    0.94230    1.000
    C1959    C        0.03970    0.52490    0.02182    1.000
    C1960    C        0.14120    0.35020    0.92164    1.000
    H1305    H        0.00790    0.50590    0.01860    1.000
    H1306    H        0.04410    0.55540    0.02430    1.000
    O360     O        0.04610    0.50350    0.03226    1.000
    H1307    H        0.12430    0.32190    0.92680    1.000
    H1308    H        0.16830    0.35040    0.91780    1.000
    O361     O        0.11250    0.35110    0.91213    1.000
    C1961    C        0.00970    0.48230    0.04079    1.000
    C1962    C        0.09230    0.31450    0.90452    1.000
    C1963    C        0.97550    0.49450    0.04107    1.000
    C1964    C        0.01820    0.46190    0.05178    1.000
    C1965    C        0.10320    0.28040    0.90442    1.000
    C1966    C        0.06880    0.32000    0.89365    1.000
    H1309    H        0.97650    0.51710    0.03540    1.000
    C1967    C        0.93970    0.47280    0.04984    1.000
    C1968    C        0.98310    0.44180    0.06009    1.000
    C1969    C        0.05620    0.45310    0.05420    1.000
    C1970    C        0.08160    0.24460    0.89500    1.000
    H1310    H        0.12430    0.28020    0.91040    1.000
    C1971    C        0.04740    0.28590    0.88479    1.000
    C1972    C        0.05660    0.35640    0.89185    1.000
    H1311    H        0.91210    0.47410    0.04890    1.000
    C1973    C        0.94560    0.44850    0.06031    1.000
    C1974    C        0.99140    0.41200    0.06974    1.000
    H1312    H        0.08180    0.46870    0.04790    1.000
    C1975    C        0.07100    0.46620    0.06650    1.000
    C1976    C        0.03350    0.40240    0.05350    1.000
    C1977    C        0.05450    0.25020    0.88460    1.000
    H1313    H        0.08460    0.21790    0.89540    1.000
    C1978    C        0.01740    0.28880    0.87563    1.000
    H1314    H        0.07130    0.38160    0.89830    1.000
    C1979    C        0.00790    0.33610    0.89145    1.000
    C1980    C        0.07490    0.37320    0.87809    1.000
    O362     O        0.91340    0.42750    0.06906    1.000
    H1315    H        0.96620    0.39650    0.07620    1.000
    C1981    C        0.03820    0.44680    0.07550    1.000
    C1982    C        0.99980    0.37990    0.06240    1.000
    C1983    C        0.11540    0.49630    0.07060    1.000
    C1984    C        0.04580    0.37670    0.04550    1.000
    O363     O        0.03740    0.21310    0.87582    1.000
    H1316    H        0.00120    0.26120    0.87000    1.000
    C1985    C        0.98630    0.30010    0.88274    1.000
    C1986    C        0.05230    0.33400    0.86862    1.000
    C1987    C        0.97990    0.34780    0.89863    1.000
    C1988    C        0.10480    0.41770    0.87436    1.000
    C1989    C        0.88000    0.43550    0.06995    1.000
    C1990    C        0.05070    0.45930    0.08950    1.000
    C1991    C        0.97630    0.33710    0.06417    1.000
    C1992    C        0.12230    0.50830    0.08600    1.000
    H1317    H        0.14070    0.50940    0.06490    1.000
    C1993    C        0.02180    0.33140    0.04640    1.000
    H1318    H        0.07050    0.39150    0.03960    1.000
    C1994    C        0.05550    0.18430    0.87443    1.000
    C1995    C        0.94140    0.27830    0.88140    1.000
    C1996    C        0.06320    0.34450    0.85622    1.000
    H1319    H        0.99450    0.37350    0.90420    1.000
    C1997    C        0.93330    0.32470    0.89810    1.000
    H1320    H        0.11880    0.44210    0.88030    1.000
    C1998    C        0.11390    0.42560    0.86136    1.000
    H1321    H        0.89310    0.46910    0.07110    1.000
    H1322    H        0.86320    0.42710    0.06180    1.000
    C1999    C        0.84570    0.41100    0.08031    1.000
    H1323    H        0.02750    0.44500    0.09580    1.000
    C2000    C        0.09420    0.49040    0.09300    1.000
    H1324    H        0.95220    0.32500    0.07030    1.000
    C2001    C        0.98610    0.30630    0.05700    1.000
    H1325    H        0.15170    0.53150    0.08890    1.000
    H1326    H        0.02670    0.31350    0.04030    1.000
    H1327    H        0.08960    0.20260    0.87400    1.000
    H1328    H        0.04680    0.16300    0.88170    1.000
    C2002    C        0.03660    0.15820    0.86270    1.000
    C2003    C        0.91560    0.29190    0.88880    1.000
    H1329    H        0.92660    0.25350    0.87560    1.000
    C2004    C        0.09430    0.38680    0.85249    1.000
    H1330    H        0.04820    0.32100    0.85000    1.000
    H1331    H        0.91460    0.33060    0.90370    1.000
    H1332    H        0.13270    0.45610    0.85830    1.000
    C2005    C        0.85720    0.38970    0.08958    1.000
    C2006    C        0.80210    0.40780    0.08147    1.000
    H1333    H        0.10080    0.49710    0.10170    1.000
    H1334    H        0.97200    0.27410    0.05860    1.000
    C2007    C        0.04730    0.12300    0.85880    1.000
    C2008    C        0.01480    0.16860    0.85420    1.000
    H1335    H        0.88340    0.27740    0.88720    1.000
    H1336    H        0.10400    0.39190    0.84390    1.000
    H1337    H        0.88600    0.39080    0.08900    1.000
    C2009    C        0.82860    0.36650    0.09991    1.000
    C2010    C        0.77520    0.38540    0.09162    1.000
    H1338    H        0.79170    0.42100    0.07520    1.000
    H1339    H        0.06420    0.11350    0.86400    1.000
    C2011    C        0.03100    0.10400    0.84672    1.000
    C2012    C        0.99270    0.14160    0.84221    1.000
    H1340    H        0.01260    0.19550    0.85560    1.000
    H1341    H        0.83820    0.35330    0.10630    1.000
    C2013    C        0.78470    0.36340    0.10041    1.000
    H1342    H        0.74710    0.38570    0.09250    1.000
    H1343    H        0.04020    0.08280    0.84400    1.000
    C2014    C        0.00580    0.11030    0.83883    1.000
    H1344    H        0.97130    0.14600    0.83740    1.000
    C2015    C        0.75270    0.33650    0.11080    1.000
    C2016    C        0.98460    0.08160    0.82810    1.000
    O364     O        0.00660    0.06350    0.82421    1.000
    Zn63     Zn       0.88769    0.93212    0.29371    1.000
    O365     O        0.94447    0.95163    0.30236    1.000
    O366     O        0.84097    0.91483    0.30699    1.000
    O367     O        0.87027    0.87823    0.28419    1.000
    O368     O        0.88267    0.97393    0.28328    1.000
    Zn64     Zn       0.92757    0.89163    0.30993    1.000
    C2017    C        0.84437    0.89203    0.31604    1.000
    C2018    C        0.88097    0.84683    0.28766    1.000
    O369     O        0.87087    0.87743    0.31867    1.000
    O370     O        0.90697    0.84783    0.29651    1.000
    O371     O        0.95777    0.87243    0.32185    1.000
    O372     O        0.98737    0.94543    0.27944    1.000
    C2019    C        0.80727    0.88253    0.32626    1.000
    C2020    C        0.86197    0.80523    0.27871    1.000
    C2021    C        0.80487    0.85843    0.33777    1.000
    C2022    C        0.77517    0.89513    0.32511    1.000
    C2023    C        0.83367    0.79973    0.26764    1.000
    C2024    C        0.86547    0.76763    0.28206    1.000
    C2025    C        0.77247    0.84973    0.34616    1.000
    H1345    H        0.82667    0.84883    0.33933    1.000
    H1346    H        0.77587    0.91143    0.31763    1.000
    C2026    C        0.74107    0.88633    0.33393    1.000
    C2027    C        0.81487    0.76023    0.26016    1.000
    H1347    H        0.82787    0.82393    0.26543    1.000
    H1348    H        0.87947    0.76733    0.28983    1.000
    C2028    C        0.84787    0.72833    0.27370    1.000
    C2029    C        0.73987    0.86423    0.34516    1.000
    H1349    H        0.77097    0.83223    0.35343    1.000
    H1350    H        0.71877    0.89533    0.33233    1.000
    C2030    C        0.82317    0.72543    0.26311    1.000
    H1351    H        0.79637    0.75753    0.25303    1.000
    H1352    H        0.85357    0.70393    0.27563    1.000
    C2031    C        0.70637    0.85823    0.35515    1.000
    C2032    C        0.80787    0.68353    0.25497    1.000
    H1353    H        0.67457    0.83923    0.35193    1.000
    H1354    H        0.71077    0.88873    0.35763    1.000
    O373     O        0.71277    0.83683    0.36559    1.000
    H1355    H        0.79097    0.65523    0.26013    1.000
    H1356    H        0.83497    0.68373    0.25113    1.000
    O374     O        0.77917    0.68443    0.24546    1.000
    C2033    C        0.67637    0.81563    0.37412    1.000
    C2034    C        0.75897    0.64783    0.23785    1.000
    C2035    C        0.64217    0.82783    0.37440    1.000
    C2036    C        0.68487    0.79523    0.38511    1.000
    C2037    C        0.76987    0.61373    0.23775    1.000
    C2038    C        0.73547    0.65333    0.22698    1.000
    H1357    H        0.64317    0.85043    0.36873    1.000
    C2039    C        0.60637    0.80613    0.38317    1.000
    C2040    C        0.64977    0.77513    0.39342    1.000
    C2041    C        0.72287    0.78643    0.38753    1.000
    C2042    C        0.74827    0.57793    0.22833    1.000
    H1358    H        0.79097    0.61353    0.24373    1.000
    C2043    C        0.71407    0.61923    0.21812    1.000
    C2044    C        0.72327    0.68973    0.22518    1.000
    H1359    H        0.57877    0.80743    0.38223    1.000
    C2045    C        0.61227    0.78183    0.39364    1.000
    C2046    C        0.65807    0.74533    0.40307    1.000
    H1360    H        0.74847    0.80203    0.38123    1.000
    C2047    C        0.73767    0.79953    0.39983    1.000
    C2048    C        0.70017    0.73573    0.38683    1.000
    C2049    C        0.72117    0.58353    0.21793    1.000
    H1361    H        0.75127    0.55123    0.22873    1.000
    C2050    C        0.68407    0.62213    0.20896    1.000
    H1362    H        0.73797    0.71493    0.23163    1.000
    C2051    C        0.67457    0.66943    0.22478    1.000
    C2052    C        0.74157    0.70653    0.21142    1.000
    O375     O        0.58007    0.76083    0.40239    1.000
    H1363    H        0.63287    0.72983    0.40953    1.000
    C2053    C        0.70487    0.78013    0.40883    1.000
    C2054    C        0.66647    0.71323    0.39573    1.000
    C2055    C        0.78207    0.82963    0.40393    1.000
    C2056    C        0.71247    0.71003    0.37883    1.000
    O376     O        0.70407    0.54643    0.20915    1.000
    H1364    H        0.66787    0.59453    0.20333    1.000
    C2057    C        0.65297    0.63343    0.21607    1.000
    C2058    C        0.71897    0.66733    0.20195    1.000
    C2059    C        0.64657    0.68113    0.23196    1.000
    C2060    C        0.77147    0.75103    0.20769    1.000
    C2061    C        0.54667    0.76883    0.40328    1.000
    C2062    C        0.71737    0.79263    0.42283    1.000
    C2063    C        0.64297    0.67043    0.39750    1.000
    C2064    C        0.78897    0.84163    0.41933    1.000
    H1365    H        0.80737    0.84273    0.39823    1.000
    C2065    C        0.68847    0.66473    0.37973    1.000
    H1366    H        0.73717    0.72483    0.37293    1.000
    C2066    C        0.72217    0.51763    0.20776    1.000
    C2067    C        0.60807    0.61163    0.21473    1.000
    C2068    C        0.72987    0.67783    0.18955    1.000
    H1367    H        0.66117    0.70683    0.23753    1.000
    C2069    C        0.59997    0.65803    0.23143    1.000
    H1368    H        0.78547    0.77543    0.21363    1.000
    C2070    C        0.78057    0.75893    0.19469    1.000
    H1369    H        0.55977    0.80243    0.40443    1.000
    H1370    H        0.52987    0.76043    0.39513    1.000
    C2071    C        0.51237    0.74433    0.41364    1.000
    H1371    H        0.69417    0.77833    0.42913    1.000
    C2072    C        0.76087    0.82373    0.42633    1.000
    H1372    H        0.61887    0.65833    0.40363    1.000
    C2073    C        0.65277    0.63963    0.39033    1.000
    H1373    H        0.81837    0.86483    0.42223    1.000
    H1374    H        0.69337    0.64683    0.37363    1.000
    H1375    H        0.75627    0.53593    0.20733    1.000
    H1376    H        0.71347    0.49633    0.21503    1.000
    C2074    C        0.70327    0.49153    0.19603    1.000
    C2075    C        0.58227    0.62523    0.22213    1.000
    H1377    H        0.59327    0.58683    0.20893    1.000
    C2076    C        0.76097    0.72013    0.18582    1.000
    H1378    H        0.71487    0.65433    0.18333    1.000
    H1379    H        0.58127    0.66393    0.23703    1.000
    H1380    H        0.79937    0.78943    0.19163    1.000
    C2077    C        0.52387    0.72303    0.42291    1.000
    C2078    C        0.46877    0.74113    0.41480    1.000
    H1381    H        0.76747    0.83043    0.43503    1.000
    H1382    H        0.63867    0.60743    0.39193    1.000
    C2079    C        0.71397    0.45633    0.19213    1.000
    C2080    C        0.68147    0.50193    0.18753    1.000
    H1383    H        0.55007    0.61073    0.22053    1.000
    H1384    H        0.77067    0.72523    0.17723    1.000
    H1385    H        0.55267    0.72413    0.42233    1.000
    C2081    C        0.49527    0.69983    0.43324    1.000
    C2082    C        0.44187    0.71873    0.42495    1.000
    H1386    H        0.45837    0.75433    0.40853    1.000
    H1387    H        0.73087    0.44683    0.19733    1.000
    C2083    C        0.69767    0.43733    0.18005    1.000
    C2084    C        0.65937    0.47493    0.17554    1.000
    H1388    H        0.67927    0.52883    0.18893    1.000
    H1389    H        0.50487    0.68663    0.43963    1.000
    C2085    C        0.45137    0.69673    0.43374    1.000
    H1390    H        0.41377    0.71903    0.42583    1.000
    H1391    H        0.70687    0.41613    0.17733    1.000
    C2086    C        0.67247    0.44363    0.17216    1.000
    H1392    H        0.63797    0.47933    0.17073    1.000
    C2087    C        0.41937    0.66983    0.44413    1.000
    C2088    C        0.65127    0.41493    0.16143    1.000
    O377     O        0.67327    0.39683    0.15754    1.000
    Zn65     Zn       0.55435    0.26546    0.62705    1.000
    O378     O        0.61113    0.28497    0.63570    1.000
    O379     O        0.50763    0.24817    0.64033    1.000
    O380     O        0.53693    0.21157    0.61753    1.000
    O381     O        0.54933    0.30727    0.61662    1.000
    Zn66     Zn       0.59423    0.22497    0.64327    1.000
    C2089    C        0.51103    0.22537    0.64938    1.000
    C2090    C        0.54763    0.18017    0.62100    1.000
    O382     O        0.53753    0.21077    0.65201    1.000
    O383     O        0.57363    0.18117    0.62985    1.000
    O384     O        0.62443    0.20577    0.65519    1.000
    O385     O        0.65403    0.27877    0.61278    1.000
    C2091    C        0.47393    0.21587    0.65960    1.000
    C2092    C        0.52863    0.13857    0.61205    1.000
    C2093    C        0.47153    0.19177    0.67111    1.000
    C2094    C        0.44183    0.22847    0.65845    1.000
    C2095    C        0.50033    0.13307    0.60098    1.000
    C2096    C        0.53213    0.10097    0.61540    1.000
    C2097    C        0.43913    0.18307    0.67950    1.000
    H1393    H        0.49333    0.18217    0.67267    1.000
    H1394    H        0.44253    0.24477    0.65097    1.000
    C2098    C        0.40773    0.21967    0.66727    1.000
    C2099    C        0.48153    0.09357    0.59350    1.000
    H1395    H        0.49453    0.15727    0.59877    1.000
    H1396    H        0.54613    0.10067    0.62317    1.000
    C2100    C        0.51453    0.06167    0.60704    1.000
    C2101    C        0.40653    0.19757    0.67850    1.000
    H1397    H        0.43763    0.16557    0.68677    1.000
    H1398    H        0.38543    0.22867    0.66567    1.000
    C2102    C        0.48983    0.05877    0.59645    1.000
    H1399    H        0.46303    0.09087    0.58637    1.000
    H1400    H        0.52023    0.03727    0.60897    1.000
    C2103    C        0.37303    0.19157    0.68849    1.000
    C2104    C        0.47453    0.01687    0.58831    1.000
    H1401    H        0.34123    0.17257    0.68527    1.000
    H1402    H        0.37743    0.22207    0.69097    1.000
    O386     O        0.37943    0.17017    0.69893    1.000
    H1403    H        0.45763    0.98857    0.59347    1.000
    H1404    H        0.50163    0.01707    0.58447    1.000
    O387     O        0.44583    0.01777    0.57880    1.000
    C2105    C        0.34303    0.14897    0.70746    1.000
    C2106    C        0.42563    0.98117    0.57119    1.000
    C2107    C        0.30883    0.16117    0.70774    1.000
    C2108    C        0.35153    0.12857    0.71845    1.000
    C2109    C        0.43653    0.94707    0.57109    1.000
    C2110    C        0.40213    0.98667    0.56032    1.000
    H1405    H        0.30983    0.18377    0.70207    1.000
    C2111    C        0.27303    0.13947    0.71651    1.000
    C2112    C        0.31643    0.10847    0.72676    1.000
    C2113    C        0.38953    0.11977    0.72087    1.000
    C2114    C        0.41493    0.91127    0.56167    1.000
    H1406    H        0.45763    0.94687    0.57707    1.000
    C2115    C        0.38073    0.95257    0.55146    1.000
    C2116    C        0.38993    0.02307    0.55852    1.000
    H1407    H        0.24543    0.14077    0.71557    1.000
    C2117    C        0.27893    0.11517    0.72698    1.000
    C2118    C        0.32473    0.07867    0.73641    1.000
    H1408    H        0.41513    0.13537    0.71457    1.000
    C2119    C        0.40433    0.13287    0.73317    1.000
    C2120    C        0.36683    0.06907    0.72017    1.000
    C2121    C        0.38783    0.91687    0.55127    1.000
    H1409    H        0.41793    0.88457    0.56207    1.000
    C2122    C        0.35073    0.95547    0.54230    1.000
    H1410    H        0.40463    0.04827    0.56497    1.000
    C2123    C        0.34123    0.00277    0.55812    1.000
    C2124    C        0.40823    0.03987    0.54476    1.000
    O388     O        0.24673    0.09417    0.73573    1.000
    H1411    H        0.29953    0.06317    0.74287    1.000
    C2125    C        0.37153    0.11347    0.74217    1.000
    C2126    C        0.33313    0.04657    0.72907    1.000
    C2127    C        0.44873    0.16297    0.73727    1.000
    C2128    C        0.37913    0.04337    0.71217    1.000
    O389     O        0.37073    0.87977    0.54249    1.000
    H1412    H        0.33453    0.92787    0.53667    1.000
    C2129    C        0.31963    0.96677    0.54941    1.000
    C2130    C        0.38563    0.00067    0.53529    1.000
    C2131    C        0.31323    0.01447    0.56530    1.000
    C2132    C        0.43813    0.08437    0.54103    1.000
    C2133    C        0.21333    0.10217    0.73662    1.000
    C2134    C        0.38403    0.12597    0.75617    1.000
    C2135    C        0.30963    0.00377    0.73084    1.000
    C2136    C        0.45563    0.17497    0.75267    1.000
    H1413    H        0.47403    0.17607    0.73157    1.000
    C2137    C        0.35513    0.99807    0.71307    1.000
    H1414    H        0.40383    0.05817    0.70627    1.000
    C2138    C        0.38883    0.85097    0.54110    1.000
    C2139    C        0.27473    0.94497    0.54807    1.000
    C2140    C        0.39653    0.01117    0.52289    1.000
    H1415    H        0.32783    0.04017    0.57087    1.000
    C2141    C        0.26663    0.99137    0.56477    1.000
    H1416    H        0.45213    0.10877    0.54697    1.000
    C2142    C        0.44723    0.09227    0.52803    1.000
    H1417    H        0.22643    0.13577    0.73777    1.000
    H1418    H        0.19653    0.09377    0.72847    1.000
    C2143    C        0.17903    0.07767    0.74698    1.000
    H1419    H        0.36083    0.11167    0.76247    1.000
    C2144    C        0.42753    0.15707    0.75967    1.000
    H1420    H        0.28553    0.99167    0.73697    1.000
    C2145    C        0.31943    0.97297    0.72367    1.000
    H1421    H        0.48503    0.19817    0.75557    1.000
    H1422    H        0.36003    0.98017    0.70697    1.000
    H1423    H        0.42293    0.86927    0.54067    1.000
    H1424    H        0.38013    0.82967    0.54837    1.000
    C2146    C        0.36993    0.82487    0.52937    1.000
    C2147    C        0.24893    0.95857    0.55547    1.000
    H1425    H        0.25993    0.92017    0.54227    1.000
    C2148    C        0.42763    0.05347    0.51916    1.000
    H1426    H        0.38153    0.98767    0.51667    1.000
    H1427    H        0.24793    0.99727    0.57037    1.000
    H1428    H        0.46603    0.12277    0.52497    1.000
    C2149    C        0.19053    0.05637    0.75625    1.000
    C2150    C        0.13543    0.07447    0.74814    1.000
    H1429    H        0.43413    0.16377    0.76837    1.000
    H1430    H        0.30533    0.94077    0.72527    1.000
    C2151    C        0.38063    0.78967    0.52547    1.000
    C2152    C        0.34813    0.83527    0.52087    1.000
    H1431    H        0.21673    0.94407    0.55387    1.000
    H1432    H        0.43733    0.05857    0.51057    1.000
    H1433    H        0.21933    0.05747    0.75567    1.000
    C2153    C        0.16193    0.03317    0.76658    1.000
    C2154    C        0.10853    0.05207    0.75829    1.000
    H1434    H        0.12503    0.08767    0.74187    1.000
    H1435    H        0.39753    0.78017    0.53067    1.000
    C2155    C        0.36433    0.77067    0.51339    1.000
    C2156    C        0.32603    0.80827    0.50888    1.000
    H1436    H        0.34593    0.86217    0.52227    1.000
    H1437    H        0.17153    0.01997    0.77297    1.000
    C2157    C        0.11803    0.03007    0.76708    1.000
    H1438    H        0.08043    0.05237    0.75917    1.000
    H1439    H        0.37353    0.74947    0.51067    1.000
    C2158    C        0.33913    0.77697    0.50550    1.000
    H1440    H        0.30463    0.81267    0.50407    1.000
    C2159    C        0.08603    0.00317    0.77747    1.000
    C2160    C        0.31793    0.74827    0.49477    1.000
    O390     O        0.33993    0.73017    0.49088    1.000
    Zn67     Zn       0.40121    0.62223    0.96038    1.000
    O391     O        0.38170    0.65950    0.96903    1.000
    O392     O        0.41850    0.59280    0.97366    1.000
    O393     O        0.45510    0.65870    0.95086    1.000
    O394     O        0.35940    0.57540    0.94995    1.000
    Zn68     Zn       0.44170    0.70260    0.97660    1.000
    C2161    C        0.44130    0.61900    0.98271    1.000
    C2162    C        0.48650    0.70080    0.95433    1.000
    O395     O        0.45590    0.66010    0.98534    1.000
    O396     O        0.48550    0.72580    0.96318    1.000
    O397     O        0.46090    0.75200    0.98852    1.000
    O398     O        0.38790    0.70860    0.94611    1.000
    C2163    C        0.45080    0.59140    0.99293    1.000
    C2164    C        0.52810    0.72340    0.94538    1.000
    C2165    C        0.47490    0.61310    0.00444    1.000
    C2166    C        0.43820    0.54670    0.99178    1.000
    C2167    C        0.53360    0.70060    0.93431    1.000
    C2168    C        0.56570    0.76450    0.94873    1.000
    C2169    C        0.48360    0.58940    0.01283    1.000
    H1441    H        0.48450    0.64450    0.00600    1.000
    H1442    H        0.42190    0.53110    0.98430    1.000
    C2170    C        0.44700    0.52140    0.00060    1.000
    C2171    C        0.57310    0.72130    0.92683    1.000
    H1443    H        0.50940    0.67060    0.93210    1.000
    H1444    H        0.56600    0.77880    0.95650    1.000
    C2172    C        0.60500    0.78620    0.94037    1.000
    C2173    C        0.46910    0.54230    0.01183    1.000
    H1445    H        0.50110    0.60540    0.02010    1.000
    H1446    H        0.43800    0.49010    0.99900    1.000
    C2174    C        0.60790    0.76440    0.92978    1.000
    H1447    H        0.57580    0.70550    0.91970    1.000
    H1448    H        0.62940    0.81630    0.94230    1.000
    C2175    C        0.47510    0.51480    0.02182    1.000
    C2176    C        0.64980    0.79100    0.92164    1.000
    H1449    H        0.49410    0.50200    0.01860    1.000
    H1450    H        0.44460    0.48870    0.02430    1.000
    O399     O        0.49650    0.54260    0.03226    1.000
    H1451    H        0.67810    0.80240    0.92680    1.000
    H1452    H        0.64960    0.81790    0.91780    1.000
    O400     O        0.64890    0.76140    0.91213    1.000
    C2177    C        0.51770    0.52740    0.04079    1.000
    C2178    C        0.68550    0.77780    0.90452    1.000
    C2179    C        0.50550    0.48100    0.04107    1.000
    C2180    C        0.53810    0.55630    0.05178    1.000
    C2181    C        0.71960    0.82280    0.90442    1.000
    C2182    C        0.68000    0.74880    0.89365    1.000
    H1453    H        0.48290    0.45940    0.03540    1.000
    C2183    C        0.52720    0.46690    0.04984    1.000
    C2184    C        0.55820    0.54130    0.06009    1.000
    C2185    C        0.54690    0.60310    0.05420    1.000
    C2186    C        0.75540    0.83700    0.89500    1.000
    H1454    H        0.71980    0.84410    0.91040    1.000
    C2187    C        0.71410    0.76150    0.88479    1.000
    C2188    C        0.64360    0.70020    0.89185    1.000
    H1455    H        0.52590    0.43800    0.04890    1.000
    C2189    C        0.55150    0.49710    0.06031    1.000
    C2190    C        0.58800    0.57940    0.06974    1.000
    H1456    H        0.53130    0.61310    0.04790    1.000
    C2191    C        0.53380    0.60480    0.06650    1.000
    C2192    C        0.59760    0.63110    0.05350    1.000
    C2193    C        0.74980    0.80430    0.88460    1.000
    H1457    H        0.78210    0.86670    0.89540    1.000
    C2194    C        0.71120    0.72860    0.87563    1.000
    H1458    H        0.61840    0.68970    0.89830    1.000
    C2195    C        0.66390    0.67180    0.89145    1.000
    C2196    C        0.62680    0.70170    0.87809    1.000
    O401     O        0.57250    0.48590    0.06906    1.000
    H1459    H        0.60350    0.56970    0.07620    1.000
    C2197    C        0.55320    0.59140    0.07550    1.000
    C2198    C        0.62010    0.61990    0.06240    1.000
    C2199    C        0.50370    0.61910    0.07060    1.000
    C2200    C        0.62330    0.66910    0.04550    1.000
    O402     O        0.78690    0.82430    0.87582    1.000
    H1460    H        0.73880    0.74000    0.87000    1.000
    C2201    C        0.69990    0.68620    0.88274    1.000
    C2202    C        0.66600    0.71830    0.86862    1.000
    C2203    C        0.65220    0.63210    0.89863    1.000
    C2204    C        0.58230    0.68710    0.87436    1.000
    C2205    C        0.56450    0.44450    0.06995    1.000
    C2206    C        0.54070    0.59140    0.08950    1.000
    C2207    C        0.66290    0.63920    0.06417    1.000
    C2208    C        0.49170    0.61400    0.08600    1.000
    H1461    H        0.49060    0.63130    0.06490    1.000
    C2209    C        0.66860    0.69040    0.04640    1.000
    H1462    H        0.60850    0.67900    0.03960    1.000
    C2210    C        0.81570    0.87120    0.87443    1.000
    C2211    C        0.72170    0.66310    0.88140    1.000
    C2212    C        0.65550    0.71870    0.85622    1.000
    H1463    H        0.62650    0.62100    0.90420    1.000
    C2213    C        0.67530    0.60860    0.89810    1.000
    H1464    H        0.55790    0.67670    0.88030    1.000
    C2214    C        0.57440    0.68830    0.86136    1.000
    H1465    H        0.53090    0.42400    0.07110    1.000
    H1466    H        0.57290    0.43610    0.06180    1.000
    C2215    C        0.58900    0.43470    0.08031    1.000
    H1467    H        0.55500    0.58250    0.09580    1.000
    C2216    C        0.50960    0.60380    0.09300    1.000
    H1468    H        0.67500    0.62720    0.07030    1.000
    C2217    C        0.69370    0.67980    0.05700    1.000
    H1469    H        0.46850    0.62020    0.08890    1.000
    H1470    H        0.68650    0.71320    0.04030    1.000
    H1471    H        0.79740    0.88700    0.87400    1.000
    H1472    H        0.83700    0.88380    0.88170    1.000
    C2218    C        0.84180    0.87840    0.86270    1.000
    C2219    C        0.70810    0.62370    0.88880    1.000
    H1473    H        0.74650    0.67310    0.87560    1.000
    C2220    C        0.61320    0.70750    0.85249    1.000
    H1474    H        0.67900    0.72720    0.85000    1.000
    H1475    H        0.66940    0.58400    0.90370    1.000
    H1476    H        0.54390    0.67660    0.85830    1.000
    C2221    C        0.61030    0.46750    0.08958    1.000
    C2222    C        0.59220    0.39430    0.08147    1.000
    H1477    H        0.50290    0.60370    0.10170    1.000
    H1478    H        0.72590    0.69790    0.05860    1.000
    C2223    C        0.87700    0.92430    0.85880    1.000
    C2224    C        0.83140    0.84620    0.85420    1.000
    H1479    H        0.72260    0.60600    0.88720    1.000
    H1480    H        0.60810    0.71210    0.84390    1.000
    H1481    H        0.60920    0.49520    0.08900    1.000
    C2225    C        0.63350    0.46210    0.09991    1.000
    C2226    C        0.61460    0.38980    0.09162    1.000
    H1482    H        0.57900    0.37070    0.07520    1.000
    H1483    H        0.88650    0.95070    0.86400    1.000
    C2227    C        0.89600    0.92700    0.84672    1.000
    C2228    C        0.85840    0.85110    0.84221    1.000
    H1484    H        0.80450    0.81710    0.85560    1.000
    H1485    H        0.64670    0.48490    0.10630    1.000
    C2229    C        0.63660    0.42130    0.10041    1.000
    H1486    H        0.61430    0.36140    0.09250    1.000
    H1487    H        0.91720    0.95740    0.84400    1.000
    C2230    C        0.88970    0.89550    0.83883    1.000
    H1488    H        0.85400    0.82530    0.83740    1.000
    C2231    C        0.66350    0.41620    0.11080    1.000
    C2232    C        0.91840    0.90300    0.82810    1.000
    O403     O        0.93650    0.94310    0.82421    1.000
    Zn69     Zn       0.06788    0.95556    0.29371    1.000
    O404     O        0.04837    0.99283    0.30236    1.000
    O405     O        0.08517    0.92613    0.30699    1.000
    O406     O        0.12177    0.99203    0.28419    1.000
    O407     O        0.02607    0.90873    0.28328    1.000
    Zn70     Zn       0.10837    0.03593    0.30993    1.000
    C2233    C        0.10797    0.95233    0.31604    1.000
    C2234    C        0.15317    0.03413    0.28766    1.000
    O408     O        0.12257    0.99343    0.31867    1.000
    O409     O        0.15217    0.05913    0.29651    1.000
    O410     O        0.12757    0.08533    0.32185    1.000
    O411     O        0.05457    0.04193    0.27944    1.000
    C2235    C        0.11747    0.92473    0.32626    1.000
    C2236    C        0.19477    0.05673    0.27871    1.000
    C2237    C        0.14157    0.94643    0.33777    1.000
    C2238    C        0.10487    0.88003    0.32511    1.000
    C2239    C        0.20027    0.03393    0.26764    1.000
    C2240    C        0.23237    0.09783    0.28206    1.000
    C2241    C        0.15027    0.92273    0.34616    1.000
    H1489    H        0.15117    0.97783    0.33933    1.000
    H1490    H        0.08857    0.86443    0.31763    1.000
    C2242    C        0.11367    0.85473    0.33393    1.000
    C2243    C        0.23977    0.05463    0.26016    1.000
    H1491    H        0.17607    0.00393    0.26543    1.000
    H1492    H        0.23267    0.11213    0.28983    1.000
    C2244    C        0.27167    0.11953    0.27370    1.000
    C2245    C        0.13577    0.87563    0.34516    1.000
    H1493    H        0.16777    0.93873    0.35343    1.000
    H1494    H        0.10467    0.82343    0.33233    1.000
    C2246    C        0.27457    0.09773    0.26311    1.000
    H1495    H        0.24247    0.03883    0.25303    1.000
    H1496    H        0.29607    0.14963    0.27563    1.000
    C2247    C        0.14177    0.84813    0.35515    1.000
    C2248    C        0.31647    0.12433    0.25497    1.000
    H1497    H        0.16077    0.83533    0.35193    1.000
    H1498    H        0.11127    0.82203    0.35763    1.000
    O412     O        0.16317    0.87593    0.36559    1.000
    H1499    H        0.34477    0.13573    0.26013    1.000
    H1500    H        0.31627    0.15123    0.25113    1.000
    O413     O        0.31557    0.09473    0.24546    1.000
    C2249    C        0.18437    0.86073    0.37412    1.000
    C2250    C        0.35217    0.11113    0.23785    1.000
    C2251    C        0.17217    0.81433    0.37440    1.000
    C2252    C        0.20477    0.88963    0.38511    1.000
    C2253    C        0.38627    0.15613    0.23775    1.000
    C2254    C        0.34667    0.08213    0.22698    1.000
    H1501    H        0.14957    0.79273    0.36873    1.000
    C2255    C        0.19387    0.80023    0.38317    1.000
    C2256    C        0.22487    0.87463    0.39342    1.000
    C2257    C        0.21357    0.93643    0.38753    1.000
    C2258    C        0.42207    0.17033    0.22833    1.000
    H1502    H        0.38647    0.17743    0.24373    1.000
    C2259    C        0.38077    0.09483    0.21812    1.000
    C2260    C        0.31027    0.03353    0.22518    1.000
    H1503    H        0.19257    0.77133    0.38223    1.000
    C2261    C        0.21817    0.83043    0.39364    1.000
    C2262    C        0.25467    0.91273    0.40307    1.000
    H1504    H        0.19797    0.94643    0.38123    1.000
    C2263    C        0.20047    0.93813    0.39983    1.000
    C2264    C        0.26427    0.96443    0.38683    1.000
    C2265    C        0.41647    0.13763    0.21793    1.000
    H1505    H        0.44877    0.20003    0.22873    1.000
    C2266    C        0.37787    0.06193    0.20896    1.000
    H1506    H        0.28507    0.02303    0.23163    1.000
    C2267    C        0.33057    0.00513    0.22478    1.000
    C2268    C        0.29347    0.03503    0.21142    1.000
    O414     O        0.23917    0.81923    0.40239    1.000
    H1507    H        0.27017    0.90303    0.40953    1.000
    C2269    C        0.21987    0.92473    0.40883    1.000
    C2270    C        0.28677    0.95323    0.39573    1.000
    C2271    C        0.17037    0.95243    0.40393    1.000
    C2272    C        0.28997    0.00243    0.37883    1.000
    O415     O        0.45357    0.15763    0.20915    1.000
    H1508    H        0.40547    0.07333    0.20333    1.000
    C2273    C        0.36657    0.01953    0.21607    1.000
    C2274    C        0.33267    0.05163    0.20195    1.000
    C2275    C        0.31887    0.96543    0.23196    1.000
    C2276    C        0.24897    0.02043    0.20769    1.000
    C2277    C        0.23117    0.77783    0.40328    1.000
    C2278    C        0.20737    0.92473    0.42283    1.000
    C2279    C        0.32957    0.97253    0.39750    1.000
    C2280    C        0.15837    0.94733    0.41933    1.000
    H1509    H        0.15727    0.96463    0.39823    1.000
    C2281    C        0.33527    0.02373    0.37973    1.000
    H1510    H        0.27517    0.01233    0.37293    1.000
    C2282    C        0.48237    0.20453    0.20776    1.000
    C2283    C        0.38837    0.99643    0.21473    1.000
    C2284    C        0.32217    0.05203    0.18955    1.000
    H1511    H        0.29317    0.95433    0.23753    1.000
    C2285    C        0.34197    0.94193    0.23143    1.000
    H1512    H        0.22457    0.01003    0.21363    1.000
    C2286    C        0.24107    0.02163    0.19469    1.000
    H1513    H        0.19757    0.75733    0.40443    1.000
    H1514    H        0.23957    0.76943    0.39513    1.000
    C2287    C        0.25567    0.76803    0.41364    1.000
    H1515    H        0.22167    0.91583    0.42913    1.000
    C2288    C        0.17627    0.93713    0.42633    1.000
    H1516    H        0.34167    0.96053    0.40363    1.000
    C2289    C        0.36037    0.01313    0.39033    1.000
    H1517    H        0.13517    0.95353    0.42223    1.000
    H1518    H        0.35317    0.04653    0.37363    1.000
    H1519    H        0.46407    0.22033    0.20733    1.000
    H1520    H        0.50367    0.21713    0.21503    1.000
    C2290    C        0.50847    0.21173    0.19603    1.000
    C2291    C        0.37477    0.95703    0.22213    1.000
    H1521    H        0.41317    0.00643    0.20893    1.000
    C2292    C        0.27987    0.04083    0.18582    1.000
    H1522    H        0.34567    0.06053    0.18333    1.000
    H1523    H        0.33607    0.91733    0.23703    1.000
    H1524    H        0.21057    0.00993    0.19163    1.000
    C2293    C        0.27697    0.80083    0.42291    1.000
    C2294    C        0.25887    0.72763    0.41480    1.000
    H1525    H        0.16957    0.93703    0.43503    1.000
    H1526    H        0.39257    0.03123    0.39193    1.000
    C2295    C        0.54367    0.25763    0.19213    1.000
    C2296    C        0.49807    0.17953    0.18753    1.000
    H1527    H        0.38927    0.93933    0.22053    1.000
    H1528    H        0.27477    0.04543    0.17723    1.000
    H1529    H        0.27587    0.82853    0.42233    1.000
    C2297    C        0.30017    0.79543    0.43324    1.000
    C2298    C        0.28127    0.72313    0.42495    1.000
    H1530    H        0.24567    0.70403    0.40853    1.000
    H1531    H        0.55317    0.28403    0.19733    1.000
    C2299    C        0.56267    0.26033    0.18005    1.000
    C2300    C        0.52507    0.18443    0.17554    1.000
    H1532    H        0.47117    0.15043    0.18893    1.000
    H1533    H        0.31337    0.81823    0.43963    1.000
    C2301    C        0.30327    0.75463    0.43374    1.000
    H1534    H        0.28097    0.69473    0.42583    1.000
    H1535    H        0.58387    0.29073    0.17733    1.000
    C2302    C        0.55637    0.22883    0.17216    1.000
    H1536    H        0.52067    0.15863    0.17073    1.000
    C2303    C        0.33017    0.74953    0.44413    1.000
    C2304    C        0.58507    0.23633    0.16143    1.000
    O416     O        0.60317    0.27643    0.15754    1.000
    Zn71     Zn       0.73454    0.28890    0.62705    1.000
    O417     O        0.71503    0.32617    0.63570    1.000
    O418     O        0.75183    0.25947    0.64033    1.000
    O419     O        0.78843    0.32537    0.61753    1.000
    O420     O        0.69273    0.24207    0.61662    1.000
    Zn72     Zn       0.77503    0.36927    0.64327    1.000
    C2305    C        0.77463    0.28567    0.64938    1.000
    C2306    C        0.81983    0.36747    0.62100    1.000
    O421     O        0.78923    0.32677    0.65201    1.000
    O422     O        0.81883    0.39247    0.62985    1.000
    O423     O        0.79423    0.41867    0.65519    1.000
    O424     O        0.72123    0.37527    0.61278    1.000
    C2307    C        0.78413    0.25807    0.65960    1.000
    C2308    C        0.86143    0.39007    0.61205    1.000
    C2309    C        0.80823    0.27977    0.67111    1.000
    C2310    C        0.77153    0.21337    0.65845    1.000
    C2311    C        0.86693    0.36727    0.60098    1.000
    C2312    C        0.89903    0.43117    0.61540    1.000
    C2313    C        0.81693    0.25607    0.67950    1.000
    H1537    H        0.81783    0.31117    0.67267    1.000
    H1538    H        0.75523    0.19777    0.65097    1.000
    C2314    C        0.78033    0.18807    0.66727    1.000
    C2315    C        0.90643    0.38797    0.59350    1.000
    H1539    H        0.84273    0.33727    0.59877    1.000
    H1540    H        0.89933    0.44547    0.62317    1.000
    C2316    C        0.93833    0.45287    0.60704    1.000
    C2317    C        0.80243    0.20897    0.67850    1.000
    H1541    H        0.83443    0.27207    0.68677    1.000
    H1542    H        0.77133    0.15677    0.66567    1.000
    C2318    C        0.94123    0.43107    0.59645    1.000
    H1543    H        0.90913    0.37217    0.58637    1.000
    H1544    H        0.96273    0.48297    0.60897    1.000
    C2319    C        0.80843    0.18147    0.68849    1.000
    C2320    C        0.98313    0.45767    0.58831    1.000
    H1545    H        0.82743    0.16867    0.68527    1.000
    H1546    H        0.77793    0.15537    0.69097    1.000
    O425     O        0.82983    0.20927    0.69893    1.000
    H1547    H        0.01143    0.46907    0.59347    1.000
    H1548    H        0.98293    0.48457    0.58447    1.000
    O426     O        0.98223    0.42807    0.57880    1.000
    C2321    C        0.85103    0.19407    0.70746    1.000
    C2322    C        0.01883    0.44447    0.57119    1.000
    C2323    C        0.83883    0.14767    0.70774    1.000
    C2324    C        0.87143    0.22297    0.71845    1.000
    C2325    C        0.05293    0.48947    0.57109    1.000
    C2326    C        0.01333    0.41547    0.56032    1.000
    H1549    H        0.81623    0.12607    0.70207    1.000
    C2327    C        0.86053    0.13357    0.71651    1.000
    C2328    C        0.89153    0.20797    0.72676    1.000
    C2329    C        0.88023    0.26977    0.72087    1.000
    C2330    C        0.08873    0.50367    0.56167    1.000
    H1550    H        0.05313    0.51077    0.57707    1.000
    C2331    C        0.04743    0.42817    0.55146    1.000
    C2332    C        0.97693    0.36687    0.55852    1.000
    H1551    H        0.85923    0.10467    0.71557    1.000
    C2333    C        0.88483    0.16377    0.72698    1.000
    C2334    C        0.92133    0.24607    0.73641    1.000
    H1552    H        0.86463    0.27977    0.71457    1.000
    C2335    C        0.86713    0.27147    0.73317    1.000
    C2336    C        0.93093    0.29777    0.72017    1.000
    C2337    C        0.08313    0.47097    0.55127    1.000
    H1553    H        0.11543    0.53337    0.56207    1.000
    C2338    C        0.04453    0.39527    0.54230    1.000
    H1554    H        0.95173    0.35637    0.56497    1.000
    C2339    C        0.99723    0.33847    0.55812    1.000
    C2340    C        0.96013    0.36837    0.54476    1.000
    O427     O        0.90583    0.15257    0.73573    1.000
    H1555    H        0.93683    0.23637    0.74287    1.000
    C2341    C        0.88653    0.25807    0.74217    1.000
    C2342    C        0.95343    0.28657    0.72907    1.000
    C2343    C        0.83703    0.28577    0.73727    1.000
    C2344    C        0.95663    0.33577    0.71217    1.000
    O428     O        0.12023    0.49097    0.54249    1.000
    H1556    H        0.07213    0.40667    0.53667    1.000
    C2345    C        0.03323    0.35287    0.54941    1.000
    C2346    C        0.99933    0.38497    0.53529    1.000
    C2347    C        0.98553    0.29877    0.56530    1.000
    C2348    C        0.91563    0.35377    0.54103    1.000
    C2349    C        0.89783    0.11117    0.73662    1.000
    C2350    C        0.87403    0.25807    0.75617    1.000
    C2351    C        0.99623    0.30587    0.73084    1.000
    C2352    C        0.82503    0.28067    0.75267    1.000
    H1557    H        0.82393    0.29797    0.73157    1.000
    C2353    C        0.00193    0.35707    0.71307    1.000
    H1558    H        0.94183    0.34567    0.70627    1.000
    C2354    C        0.14903    0.53787    0.54110    1.000
    C2355    C        0.05503    0.32977    0.54807    1.000
    C2356    C        0.98883    0.38537    0.52289    1.000
    H1559    H        0.95983    0.28767    0.57087    1.000
    C2357    C        0.00863    0.27527    0.56477    1.000
    H1560    H        0.89123    0.34337    0.54697    1.000
    C2358    C        0.90773    0.35497    0.52803    1.000
    H1561    H        0.86423    0.09067    0.73777    1.000
    H1562    H        0.90623    0.10277    0.72847    1.000
    C2359    C        0.92233    0.10137    0.74698    1.000
    H1563    H        0.88833    0.24917    0.76247    1.000
    C2360    C        0.84293    0.27047    0.75967    1.000
    H1564    H        0.00833    0.29387    0.73697    1.000
    C2361    C        0.02703    0.34647    0.72367    1.000
    H1565    H        0.80183    0.28687    0.75557    1.000
    H1566    H        0.01983    0.37987    0.70697    1.000
    H1567    H        0.13073    0.55367    0.54067    1.000
    H1568    H        0.17033    0.55047    0.54837    1.000
    C2362    C        0.17513    0.54507    0.52937    1.000
    C2363    C        0.04143    0.29037    0.55547    1.000
    H1569    H        0.07983    0.33977    0.54227    1.000
    C2364    C        0.94653    0.37417    0.51916    1.000
    H1570    H        0.01233    0.39387    0.51667    1.000
    H1571    H        0.00273    0.25067    0.57037    1.000
    H1572    H        0.87723    0.34327    0.52497    1.000
    C2365    C        0.94363    0.13417    0.75625    1.000
    C2366    C        0.92553    0.06097    0.74814    1.000
    H1573    H        0.83623    0.27037    0.76837    1.000
    H1574    H        0.05923    0.36457    0.72527    1.000
    C2367    C        0.21033    0.59097    0.52547    1.000
    C2368    C        0.16473    0.51287    0.52087    1.000
    H1575    H        0.05593    0.27267    0.55387    1.000
    H1576    H        0.94143    0.37877    0.51057    1.000
    H1577    H        0.94253    0.16187    0.75567    1.000
    C2369    C        0.96683    0.12877    0.76658    1.000
    C2370    C        0.94793    0.05647    0.75829    1.000
    H1578    H        0.91233    0.03737    0.74187    1.000
    H1579    H        0.21983    0.61737    0.53067    1.000
    C2371    C        0.22933    0.59367    0.51339    1.000
    C2372    C        0.19173    0.51777    0.50888    1.000
    H1580    H        0.13783    0.48377    0.52227    1.000
    H1581    H        0.98003    0.15157    0.77297    1.000
    C2373    C        0.96993    0.08797    0.76708    1.000
    H1582    H        0.94763    0.02807    0.75917    1.000
    H1583    H        0.25053    0.62407    0.51067    1.000
    C2374    C        0.22303    0.56217    0.50550    1.000
    H1584    H        0.18733    0.49197    0.50407    1.000
    C2375    C        0.99683    0.08287    0.77747    1.000
    C2376    C        0.25173    0.56967    0.49477    1.000
    O429     O        0.26983    0.60977    0.49088    1.000
    Zn73     Zn       0.37777    0.77898    0.96038    1.000
    O430     O        0.34050    0.72220    0.96903    1.000
    O431     O        0.40720    0.82570    0.97366    1.000
    O432     O        0.34130    0.79640    0.95086    1.000
    O433     O        0.42460    0.78400    0.94995    1.000
    Zn74     Zn       0.29740    0.73910    0.97660    1.000
    C2377    C        0.38100    0.82230    0.98271    1.000
    C2378    C        0.29920    0.78570    0.95433    1.000
    O434     O        0.33990    0.79580    0.98534    1.000
    O435     O        0.27420    0.75970    0.96318    1.000
    O436     O        0.24800    0.70890    0.98852    1.000
    O437     O        0.29140    0.67930    0.94611    1.000
    C2379    C        0.40860    0.85940    0.99293    1.000
    C2380    C        0.27660    0.80470    0.94538    1.000
    C2381    C        0.38690    0.86180    0.00444    1.000
    C2382    C        0.45330    0.89150    0.99178    1.000
    C2383    C        0.29940    0.83300    0.93431    1.000
    C2384    C        0.23550    0.80120    0.94873    1.000
    C2385    C        0.41060    0.89420    0.01283    1.000
    H1585    H        0.35550    0.84000    0.00600    1.000
    H1586    H        0.46890    0.89080    0.98430    1.000
    C2386    C        0.47860    0.92560    0.00060    1.000
    C2387    C        0.27870    0.85180    0.92683    1.000
    H1587    H        0.32940    0.83880    0.93210    1.000
    H1588    H        0.22120    0.78720    0.95650    1.000
    C2388    C        0.21380    0.81880    0.94037    1.000
    C2389    C        0.45770    0.92680    0.01183    1.000
    H1589    H        0.39460    0.89570    0.02010    1.000
    H1590    H        0.50990    0.94790    0.99900    1.000
    C2390    C        0.23560    0.84350    0.92978    1.000
    H1591    H        0.29450    0.87030    0.91970    1.000
    H1592    H        0.18370    0.81310    0.94230    1.000
    C2391    C        0.48520    0.96030    0.02182    1.000
    C2392    C        0.20900    0.85880    0.92164    1.000
    H1593    H        0.49800    0.99210    0.01860    1.000
    H1594    H        0.51130    0.95590    0.02430    1.000
    O438     O        0.45740    0.95390    0.03226    1.000
    H1595    H        0.19760    0.87570    0.92680    1.000
    H1596    H        0.18210    0.83170    0.91780    1.000
    O439     O        0.23860    0.88750    0.91213    1.000
    C2393    C        0.47260    0.99030    0.04079    1.000
    C2394    C        0.22220    0.90770    0.90452    1.000
    C2395    C        0.51900    0.02450    0.04107    1.000
    C2396    C        0.44370    0.98180    0.05178    1.000
    C2397    C        0.17720    0.89680    0.90442    1.000
    C2398    C        0.25120    0.93120    0.89365    1.000
    H1597    H        0.54060    0.02350    0.03540    1.000
    C2399    C        0.53310    0.06030    0.04984    1.000
    C2400    C        0.45870    0.01690    0.06009    1.000
    C2401    C        0.39690    0.94380    0.05420    1.000
    C2402    C        0.16300    0.91840    0.89500    1.000
    H1598    H        0.15590    0.87570    0.91040    1.000
    C2403    C        0.23850    0.95260    0.88479    1.000
    C2404    C        0.29980    0.94340    0.89185    1.000
    H1599    H        0.56200    0.08790    0.04890    1.000
    C2405    C        0.50290    0.05440    0.06031    1.000
    C2406    C        0.42060    0.00860    0.06974    1.000
    H1600    H        0.38690    0.91820    0.04790    1.000
    C2407    C        0.39520    0.92900    0.06650    1.000
    C2408    C        0.36890    0.96650    0.05350    1.000
    C2409    C        0.19570    0.94550    0.88460    1.000
    H1601    H        0.13330    0.91540    0.89540    1.000
    C2410    C        0.27140    0.98260    0.87563    1.000
    H1602    H        0.31030    0.92870    0.89830    1.000
    C2411    C        0.32820    0.99210    0.89145    1.000
    C2412    C        0.29830    0.92510    0.87809    1.000
    O440     O        0.51410    0.08660    0.06906    1.000
    H1603    H        0.43030    0.03380    0.07620    1.000
    C2413    C        0.40860    0.96180    0.07550    1.000
    C2414    C        0.38010    0.00020    0.06240    1.000
    C2415    C        0.38090    0.88460    0.07060    1.000
    C2416    C        0.33090    0.95420    0.04550    1.000
    O441     O        0.17570    0.96260    0.87582    1.000
    H1604    H        0.26000    0.99880    0.87000    1.000
    C2417    C        0.31380    0.01370    0.88274    1.000
    C2418    C        0.28170    0.94770    0.86862    1.000
    C2419    C        0.36790    0.02010    0.89863    1.000
    C2420    C        0.31290    0.89520    0.87436    1.000
    C2421    C        0.55550    0.12000    0.06995    1.000
    C2422    C        0.40860    0.94930    0.08950    1.000
    C2423    C        0.36080    0.02370    0.06417    1.000
    C2424    C        0.38600    0.87770    0.08600    1.000
    H1605    H        0.36870    0.85930    0.06490    1.000
    C2425    C        0.30960    0.97820    0.04640    1.000
    H1606    H        0.32100    0.92950    0.03960    1.000
    C2426    C        0.12880    0.94450    0.87443    1.000
    C2427    C        0.33690    0.05860    0.88140    1.000
    C2428    C        0.28130    0.93680    0.85622    1.000
    H1607    H        0.37900    0.00550    0.90420    1.000
    C2429    C        0.39140    0.06670    0.89810    1.000
    H1608    H        0.32330    0.88120    0.88030    1.000
    C2430    C        0.31170    0.88610    0.86136    1.000
    H1609    H        0.57600    0.10690    0.07110    1.000
    H1610    H        0.56390    0.13680    0.06180    1.000
    C2431    C        0.56530    0.15430    0.08031    1.000
    H1611    H        0.41750    0.97250    0.09580    1.000
    C2432    C        0.39620    0.90580    0.09300    1.000
    H1612    H        0.37280    0.04780    0.07030    1.000
    C2433    C        0.32020    0.01390    0.05700    1.000
    H1613    H        0.37980    0.84830    0.08890    1.000
    H1614    H        0.28680    0.97330    0.04030    1.000
    H1615    H        0.11300    0.91040    0.87400    1.000
    H1616    H        0.11620    0.95320    0.88170    1.000
    C2434    C        0.12160    0.96340    0.86270    1.000
    C2435    C        0.37630    0.08440    0.88880    1.000
    H1617    H        0.32690    0.07340    0.87560    1.000
    C2436    C        0.29250    0.90570    0.85249    1.000
    H1618    H        0.27280    0.95180    0.85000    1.000
    H1619    H        0.41600    0.08540    0.90370    1.000
    H1620    H        0.32340    0.86730    0.85830    1.000
    C2437    C        0.53250    0.14280    0.08958    1.000
    C2438    C        0.60570    0.19790    0.08147    1.000
    H1621    H        0.39630    0.89920    0.10170    1.000
    H1622    H        0.30210    0.02800    0.05860    1.000
    C2439    C        0.07570    0.95270    0.85880    1.000
    C2440    C        0.15380    0.98520    0.85420    1.000
    H1623    H        0.39400    0.11660    0.88720    1.000
    H1624    H        0.28790    0.89600    0.84390    1.000
    H1625    H        0.50480    0.11400    0.08900    1.000
    C2441    C        0.53790    0.17140    0.09991    1.000
    C2442    C        0.61020    0.22480    0.09162    1.000
    H1626    H        0.62930    0.20830    0.07520    1.000
    H1627    H        0.04930    0.93580    0.86400    1.000
    C2443    C        0.07300    0.96900    0.84672    1.000
    C2444    C        0.14890    0.00730    0.84221    1.000
    H1628    H        0.18290    0.98740    0.85560    1.000
    H1629    H        0.51510    0.16180    0.10630    1.000
    C2445    C        0.57870    0.21530    0.10041    1.000
    H1630    H        0.63860    0.25290    0.09250    1.000
    H1631    H        0.04260    0.95980    0.84400    1.000
    C2446    C        0.10450    0.99420    0.83883    1.000
    H1632    H        0.17470    0.02870    0.83740    1.000
    C2447    C        0.58380    0.24730    0.11080    1.000
    C2448    C        0.09700    0.01540    0.82810    1.000
    O442     O        0.05690    0.99340    0.82421    1.000
    Zn75     Zn       0.04444    0.11231    0.29371    1.000
    O443     O        0.00717    0.05553    0.30236    1.000
    O444     O        0.07387    0.15903    0.30699    1.000
    O445     O        0.00797    0.12973    0.28419    1.000
    O446     O        0.09127    0.11733    0.28328    1.000
    Zn76     Zn       0.96407    0.07243    0.30993    1.000
    C2449    C        0.04767    0.15563    0.31604    1.000
    C2450    C        0.96587    0.11903    0.28766    1.000
    O447     O        0.00657    0.12913    0.31867    1.000
    O448     O        0.94087    0.09303    0.29651    1.000
    O449     O        0.91467    0.04223    0.32185    1.000
    O450     O        0.95807    0.01263    0.27944    1.000
    C2451    C        0.07527    0.19273    0.32626    1.000
    C2452    C        0.94327    0.13803    0.27871    1.000
    C2453    C        0.05357    0.19513    0.33777    1.000
    C2454    C        0.11997    0.22483    0.32511    1.000
    C2455    C        0.96607    0.16633    0.26764    1.000
    C2456    C        0.90217    0.13453    0.28206    1.000
    C2457    C        0.07727    0.22753    0.34616    1.000
    H1633    H        0.02217    0.17333    0.33933    1.000
    H1634    H        0.13557    0.22413    0.31763    1.000
    C2458    C        0.14527    0.25893    0.33393    1.000
    C2459    C        0.94537    0.18513    0.26016    1.000
    H1635    H        0.99607    0.17213    0.26543    1.000
    H1636    H        0.88787    0.12053    0.28983    1.000
    C2460    C        0.88047    0.15213    0.27370    1.000
    C2461    C        0.12437    0.26013    0.34516    1.000
    H1637    H        0.06127    0.22903    0.35343    1.000
    H1638    H        0.17657    0.28123    0.33233    1.000
    C2462    C        0.90227    0.17683    0.26311    1.000
    H1639    H        0.96117    0.20363    0.25303    1.000
    H1640    H        0.85037    0.14643    0.27563    1.000
    C2463    C        0.15187    0.29363    0.35515    1.000
    C2464    C        0.87567    0.19213    0.25497    1.000
    H1641    H        0.16467    0.32543    0.35193    1.000
    H1642    H        0.17797    0.28923    0.35763    1.000
    O451     O        0.12407    0.28723    0.36559    1.000
    H1643    H        0.86427    0.20903    0.26013    1.000
    H1644    H        0.84877    0.16503    0.25113    1.000
    O452     O        0.90527    0.22083    0.24546    1.000
    C2465    C        0.13927    0.32363    0.37412    1.000
    C2466    C        0.88887    0.24103    0.23785    1.000
    C2467    C        0.18567    0.35783    0.37440    1.000
    C2468    C        0.11037    0.31513    0.38511    1.000
    C2469    C        0.84387    0.23013    0.23775    1.000
    C2470    C        0.91787    0.26453    0.22698    1.000
    H1645    H        0.20727    0.35683    0.36873    1.000
    C2471    C        0.19977    0.39363    0.38317    1.000
    C2472    C        0.12537    0.35023    0.39342    1.000
    C2473    C        0.06357    0.27713    0.38753    1.000
    C2474    C        0.82967    0.25173    0.22833    1.000
    H1646    H        0.82257    0.20903    0.24373    1.000
    C2475    C        0.90517    0.28593    0.21812    1.000
    C2476    C        0.96647    0.27673    0.22518    1.000
    H1647    H        0.22867    0.42123    0.38223    1.000
    C2477    C        0.16957    0.38773    0.39364    1.000
    C2478    C        0.08727    0.34193    0.40307    1.000
    H1648    H        0.05357    0.25153    0.38123    1.000
    C2479    C        0.06187    0.26233    0.39983    1.000
    C2480    C        0.03557    0.29983    0.38683    1.000
    C2481    C        0.86237    0.27883    0.21793    1.000
    H1649    H        0.79997    0.24873    0.22873    1.000
    C2482    C        0.93807    0.31593    0.20896    1.000
    H1650    H        0.97697    0.26203    0.23163    1.000
    C2483    C        0.99487    0.32543    0.22478    1.000
    C2484    C        0.96497    0.25843    0.21142    1.000
    O453     O        0.18077    0.41993    0.40239    1.000
    H1651    H        0.09697    0.36713    0.40953    1.000
    C2485    C        0.07527    0.29513    0.40883    1.000
    C2486    C        0.04677    0.33353    0.39573    1.000
    C2487    C        0.04757    0.21793    0.40393    1.000
    C2488    C        0.99757    0.28753    0.37883    1.000
    O454     O        0.84237    0.29593    0.20915    1.000
    H1652    H        0.92667    0.33213    0.20333    1.000
    C2489    C        0.98047    0.34703    0.21607    1.000
    C2490    C        0.94837    0.28103    0.20195    1.000
    C2491    C        0.03457    0.35343    0.23196    1.000
    C2492    C        0.97957    0.22853    0.20769    1.000
    C2493    C        0.22217    0.45333    0.40328    1.000
    C2494    C        0.07527    0.28263    0.42283    1.000
    C2495    C        0.02747    0.35703    0.39750    1.000
    C2496    C        0.05267    0.21103    0.41933    1.000
    H1653    H        0.03537    0.19263    0.39823    1.000
    C2497    C        0.97627    0.31153    0.37973    1.000
    H1654    H        0.98767    0.26283    0.37293    1.000
    C2498    C        0.79547    0.27783    0.20776    1.000
    C2499    C        0.00357    0.39193    0.21473    1.000
    C2500    C        0.94797    0.27013    0.18955    1.000
    H1655    H        0.04567    0.33883    0.23753    1.000
    C2501    C        0.05807    0.40003    0.23143    1.000
    H1656    H        0.98997    0.21453    0.21363    1.000
    C2502    C        0.97837    0.21943    0.19469    1.000
    H1657    H        0.24267    0.44023    0.40443    1.000
    H1658    H        0.23057    0.47013    0.39513    1.000
    C2503    C        0.23197    0.48763    0.41364    1.000
    H1659    H        0.08417    0.30583    0.42913    1.000
    C2504    C        0.06287    0.23913    0.42633    1.000
    H1660    H        0.03947    0.38113    0.40363    1.000
    C2505    C        0.98687    0.34723    0.39033    1.000
    H1661    H        0.04647    0.18163    0.42223    1.000
    H1662    H        0.95347    0.30663    0.37363    1.000
    H1663    H        0.77967    0.24373    0.20733    1.000
    H1664    H        0.78287    0.28653    0.21503    1.000
    C2506    C        0.78827    0.29673    0.19603    1.000
    C2507    C        0.04297    0.41773    0.22213    1.000
    H1665    H        0.99357    0.40673    0.20893    1.000
    C2508    C        0.95917    0.23903    0.18582    1.000
    H1666    H        0.93947    0.28513    0.18333    1.000
    H1667    H        0.08267    0.41873    0.23703    1.000
    H1668    H        0.99007    0.20063    0.19163    1.000
    C2509    C        0.19917    0.47613    0.42291    1.000
    C2510    C        0.27237    0.53123    0.41480    1.000
    H1669    H        0.06297    0.23253    0.43503    1.000
    H1670    H        0.96877    0.36133    0.39193    1.000
    C2511    C        0.74237    0.28603    0.19213    1.000
    C2512    C        0.82047    0.31853    0.18753    1.000
    H1671    H        0.06067    0.44993    0.22053    1.000
    H1672    H        0.95457    0.22933    0.17723    1.000
    H1673    H        0.17147    0.44733    0.42233    1.000
    C2513    C        0.20457    0.50473    0.43324    1.000
    C2514    C        0.27687    0.55813    0.42495    1.000
    H1674    H        0.29597    0.54163    0.40853    1.000
    H1675    H        0.71597    0.26913    0.19733    1.000
    C2515    C        0.73967    0.30233    0.18005    1.000
    C2516    C        0.81557    0.34063    0.17554    1.000
    H1676    H        0.84957    0.32073    0.18893    1.000
    H1677    H        0.18177    0.49513    0.43963    1.000
    C2517    C        0.24537    0.54863    0.43374    1.000
    H1678    H        0.30527    0.58623    0.42583    1.000
    H1679    H        0.70927    0.29313    0.17733    1.000
    C2518    C        0.77117    0.32753    0.17216    1.000
    H1680    H        0.84137    0.36203    0.17073    1.000
    C2519    C        0.25047    0.58063    0.44413    1.000
    C2520    C        0.76367    0.34873    0.16143    1.000
    O455     O        0.72357    0.32673    0.15754    1.000
    Zn77     Zn       0.71110    0.44565    0.62705    1.000
    O456     O        0.67383    0.38887    0.63570    1.000
    O457     O        0.74053    0.49237    0.64033    1.000
    O458     O        0.67463    0.46307    0.61753    1.000
    O459     O        0.75793    0.45067    0.61662    1.000
    Zn78     Zn       0.63073    0.40577    0.64327    1.000
    C2521    C        0.71433    0.48897    0.64938    1.000
    C2522    C        0.63253    0.45237    0.62100    1.000
    O460     O        0.67323    0.46247    0.65201    1.000
    O461     O        0.60753    0.42637    0.62985    1.000
    O462     O        0.58133    0.37557    0.65519    1.000
    O463     O        0.62473    0.34597    0.61278    1.000
    C2523    C        0.74193    0.52607    0.65960    1.000
    C2524    C        0.60993    0.47137    0.61205    1.000
    C2525    C        0.72023    0.52847    0.67111    1.000
    C2526    C        0.78663    0.55817    0.65845    1.000
    C2527    C        0.63273    0.49967    0.60098    1.000
    C2528    C        0.56883    0.46787    0.61540    1.000
    C2529    C        0.74393    0.56087    0.67950    1.000
    H1681    H        0.68883    0.50667    0.67267    1.000
    H1682    H        0.80223    0.55747    0.65097    1.000
    C2530    C        0.81193    0.59227    0.66727    1.000
    C2531    C        0.61203    0.51847    0.59350    1.000
    H1683    H        0.66273    0.50547    0.59877    1.000
    H1684    H        0.55453    0.45387    0.62317    1.000
    C2532    C        0.54713    0.48547    0.60704    1.000
    C2533    C        0.79103    0.59347    0.67850    1.000
    H1685    H        0.72793    0.56237    0.68677    1.000
    H1686    H        0.84323    0.61457    0.66567    1.000
    C2534    C        0.56893    0.51017    0.59645    1.000
    H1687    H        0.62783    0.53697    0.58637    1.000
    H1688    H        0.51703    0.47977    0.60897    1.000
    C2535    C        0.81853    0.62697    0.68849    1.000
    C2536    C        0.54233    0.52547    0.58831    1.000
    H1689    H        0.83133    0.65877    0.68527    1.000
    H1690    H        0.84463    0.62257    0.69097    1.000
    O464     O        0.79073    0.62057    0.69893    1.000
    H1691    H        0.53093    0.54237    0.59347    1.000
    H1692    H        0.51543    0.49837    0.58447    1.000
    O465     O        0.57193    0.55417    0.57880    1.000
    C2537    C        0.80593    0.65697    0.70746    1.000
    C2538    C        0.55553    0.57437    0.57119    1.000
    C2539    C        0.85233    0.69117    0.70774    1.000
    C2540    C        0.77703    0.64847    0.71845    1.000
    C2541    C        0.51053    0.56347    0.57109    1.000
    C2542    C        0.58453    0.59787    0.56032    1.000
    H1693    H        0.87393    0.69017    0.70207    1.000
    C2543    C        0.86643    0.72697    0.71651    1.000
    C2544    C        0.79203    0.68357    0.72676    1.000
    C2545    C        0.73023    0.61047    0.72087    1.000
    C2546    C        0.49633    0.58507    0.56167    1.000
    H1694    H        0.48923    0.54237    0.57707    1.000
    C2547    C        0.57183    0.61927    0.55146    1.000
    C2548    C        0.63313    0.61007    0.55852    1.000
    H1695    H        0.89533    0.75457    0.71557    1.000
    C2549    C        0.83623    0.72107    0.72698    1.000
    C2550    C        0.75393    0.67527    0.73641    1.000
    H1696    H        0.72023    0.58487    0.71457    1.000
    C2551    C        0.72853    0.59567    0.73317    1.000
    C2552    C        0.70223    0.63317    0.72017    1.000
    C2553    C        0.52903    0.61217    0.55127    1.000
    H1697    H        0.46663    0.58207    0.56207    1.000
    C2554    C        0.60473    0.64927    0.54230    1.000
    H1698    H        0.64363    0.59537    0.56497    1.000
    C2555    C        0.66153    0.65877    0.55812    1.000
    C2556    C        0.63163    0.59177    0.54476    1.000
    O466     O        0.84743    0.75327    0.73573    1.000
    H1699    H        0.76363    0.70047    0.74287    1.000
    C2557    C        0.74193    0.62847    0.74217    1.000
    C2558    C        0.71343    0.66687    0.72907    1.000
    C2559    C        0.71423    0.55127    0.73727    1.000
    C2560    C        0.66423    0.62087    0.71217    1.000
    O467     O        0.50903    0.62927    0.54249    1.000
    H1700    H        0.59333    0.66547    0.53667    1.000
    C2561    C        0.64713    0.68037    0.54941    1.000
    C2562    C        0.61503    0.61437    0.53529    1.000
    C2563    C        0.70123    0.68677    0.56530    1.000
    C2564    C        0.64623    0.56187    0.54103    1.000
    C2565    C        0.88883    0.78667    0.73662    1.000
    C2566    C        0.74193    0.61597    0.75617    1.000
    C2567    C        0.69413    0.69037    0.73084    1.000
    C2568    C        0.71933    0.54437    0.75267    1.000
    H1701    H        0.70203    0.52597    0.73157    1.000
    C2569    C        0.64293    0.64487    0.71307    1.000
    H1702    H        0.65433    0.59617    0.70627    1.000
    C2570    C        0.46213    0.61117    0.54110    1.000
    C2571    C        0.67023    0.72527    0.54807    1.000
    C2572    C        0.61463    0.60347    0.52289    1.000
    H1703    H        0.71233    0.67217    0.57087    1.000
    C2573    C        0.72473    0.73337    0.56477    1.000
    H1704    H        0.65663    0.54787    0.54697    1.000
    C2574    C        0.64503    0.55277    0.52803    1.000
    H1705    H        0.90933    0.77357    0.73777    1.000
    H1706    H        0.89723    0.80347    0.72847    1.000
    C2575    C        0.89863    0.82097    0.74698    1.000
    H1707    H        0.75083    0.63917    0.76247    1.000
    C2576    C        0.72953    0.57247    0.75967    1.000
    H1708    H        0.70613    0.71447    0.73697    1.000
    C2577    C        0.65353    0.68057    0.72367    1.000
    H1709    H        0.71313    0.51497    0.75557    1.000
    H1710    H        0.62013    0.63997    0.70697    1.000
    H1711    H        0.44633    0.57707    0.54067    1.000
    H1712    H        0.44953    0.61987    0.54837    1.000
    C2578    C        0.45493    0.63007    0.52937    1.000
    C2579    C        0.70963    0.75107    0.55547    1.000
    H1713    H        0.66023    0.74007    0.54227    1.000
    C2580    C        0.62583    0.57237    0.51916    1.000
    H1714    H        0.60613    0.61847    0.51667    1.000
    H1715    H        0.74933    0.75207    0.57037    1.000
    H1716    H        0.65673    0.53397    0.52497    1.000
    C2581    C        0.86583    0.80947    0.75625    1.000
    C2582    C        0.93903    0.86457    0.74814    1.000
    H1717    H        0.72963    0.56587    0.76837    1.000
    H1718    H        0.63543    0.69467    0.72527    1.000
    C2583    C        0.40903    0.61937    0.52547    1.000
    C2584    C        0.48713    0.65187    0.52087    1.000
    H1719    H        0.72733    0.78327    0.55387    1.000
    H1720    H        0.62123    0.56267    0.51057    1.000
    H1721    H        0.83813    0.78067    0.75567    1.000
    C2585    C        0.87123    0.83807    0.76658    1.000
    C2586    C        0.94353    0.89147    0.75829    1.000
    H1722    H        0.96263    0.87497    0.74187    1.000
    H1723    H        0.38263    0.60247    0.53067    1.000
    C2587    C        0.40633    0.63567    0.51339    1.000
    C2588    C        0.48223    0.67397    0.50888    1.000
    H1724    H        0.51623    0.65407    0.52227    1.000
    H1725    H        0.84843    0.82847    0.77297    1.000
    C2589    C        0.91203    0.88197    0.76708    1.000
    H1726    H        0.97193    0.91957    0.75917    1.000
    H1727    H        0.37593    0.62647    0.51067    1.000
    C2590    C        0.43783    0.66087    0.50550    1.000
    H1728    H        0.50803    0.69537    0.50407    1.000
    C2591    C        0.91713    0.91397    0.77747    1.000
    C2592    C        0.43033    0.68207    0.49477    1.000
    O468     O        0.39023    0.66007    0.49088    1.000
    Zn79     Zn       0.33333    0.66667    0.45781    1.000
    Zn80     Zn       0.00000    0.00000    0.79114    1.000
    Zn81     Zn       0.66667    0.33333    0.12448    1.000
    Zn82     Zn       0.33333    0.66667    0.95781    1.000
    Zn83     Zn       0.00000    0.00000    0.29114    1.000
    Zn84     Zn       0.66667    0.33333    0.62448    1.000
