# CIF file generated by openbabel 3.1.0, see https://openbabel.org
data_I
_chemical_name_common 'image0'
_cell_length_a 31.95
_cell_length_b 8.3596
_cell_length_c 15.9195
_cell_angle_alpha 90
_cell_angle_beta 96.645
_cell_angle_gamma 90
_space_group_name_H-M_alt 'P 1'
_space_group_name_Hall 'P 1'
loop_
    _symmetry_equiv_pos_as_xyz
    x,y,z
loop_
    _atom_site_label
    _atom_site_type_symbol
    _atom_site_fract_x
    _atom_site_fract_y
    _atom_site_fract_z
    _atom_site_occupancy
    Co1      Co       0.12823    0.71906    0.05946    1.000
    Co2      Co       0.37163    0.20807    0.91045    1.000
    Co3      Co       0.24950    0.50505    0.10884    1.000
    Co4      Co       0.24647    0.48626    0.36672    1.000
    Co5      Co       0.50774    0.26192    0.98854    1.000
    Co6      Co       0.99364    0.75879    0.01360    1.000
    P1       P        0.16933    0.46800    0.20545    1.000
    P2       P        0.21904    0.79290    0.99027    1.000
    P3       P        0.06380    0.98270    0.10975    1.000
    P4       P        0.28170    0.34490    0.94157    1.000
    P5       P        0.43521    0.03710    0.05996    1.000
    P6       P        0.05636    0.55480    0.91935    1.000
    P7       P        0.44275    0.48100    0.87112    1.000
    P8       P        0.32550    0.52990    0.27685    1.000
    O1       O        0.17140    0.76910    0.98810    1.000
    O2       O        0.14890    0.62430    0.16860    1.000
    O3       O        0.08539    0.57720    0.00250    1.000
    O4       O        0.10920    0.92900    0.10400    1.000
    O5       O        0.40520    0.04730    0.97930    1.000
    O6       O        0.32448    0.27010    0.97210    1.000
    O7       O        0.39996    0.41140    0.88530    1.000
    O8       O        0.35330    0.38240    0.29810    1.000
    O9       O        0.29520    0.49140    0.19890    1.000
    O10      O        0.25480    0.36270    0.01330    1.000
    O11      O        0.19903    0.39850    0.14400    1.000
    O12      O        0.24360    0.72570    0.07080    1.000
    O13      O        0.25800    0.24850    0.86830    1.000
    O14      O        0.30200    0.57860    0.35130    1.000
    O15      O        0.19450    0.51070    0.28940    1.000
    O16      O        0.22900    0.97250    0.98190    1.000
    O17      O        0.47810    0.35490    0.88590    1.000
    O18      O        0.47040    0.16400    0.06380    1.000
    O19      O        0.45380    0.86860    0.07230    1.000
    O20      O        0.45170    0.62470    0.93100    1.000
    O21      O        0.01900    0.67320    0.91710    1.000
    O22      O        0.05110    0.10740    0.04200    1.000
    O23      O        0.03440    0.83730    0.10520    1.000
    O24      O        0.03870    0.38160    0.91700    1.000
    O25      O        0.13570    0.34240    0.21450    1.000
    O26      O        0.23250    0.71350    0.90960    1.000
    O27      O        0.06150    0.06920    0.19670    1.000
    H1       H        0.06810    0.00620    0.23550    1.000
    O28      O        0.28930    0.51510    0.90370    1.000
    H2       H        0.30390    0.50620    0.86480    1.000
    O29      O        0.40950    0.07000    0.13660    1.000
    H3       H        0.42540    0.06490    0.18090    1.000
    O30      O        0.07950    0.57740    0.84210    1.000
    O31      O        0.44200    0.54090    0.77950    1.000
    O32      O        0.35400    0.67480    0.26020    1.000
    Co7      Co       0.87177    0.21906    0.44054    1.000
    Co8      Co       0.62837    0.70807    0.58955    1.000
    Co9      Co       0.75050    0.00505    0.39116    1.000
    Co10     Co       0.75353    0.98626    0.13328    1.000
    Co11     Co       0.49226    0.76192    0.51146    1.000
    Co12     Co       0.00636    0.25879    0.48640    1.000
    P9       P        0.83067    0.96800    0.29455    1.000
    P10      P        0.78096    0.29290    0.50973    1.000
    P11      P        0.93620    0.48270    0.39025    1.000
    P12      P        0.71830    0.84490    0.55843    1.000
    P13      P        0.56479    0.53710    0.44004    1.000
    P14      P        0.94364    0.05480    0.58065    1.000
    P15      P        0.55725    0.98100    0.62888    1.000
    P16      P        0.67450    0.02990    0.22315    1.000
    O33      O        0.82860    0.26910    0.51190    1.000
    O34      O        0.85110    0.12430    0.33140    1.000
    O35      O        0.91461    0.07720    0.49750    1.000
    O36      O        0.89080    0.42900    0.39600    1.000
    O37      O        0.59480    0.54730    0.52070    1.000
    O38      O        0.67552    0.77010    0.52790    1.000
    O39      O        0.60004    0.91140    0.61470    1.000
    O40      O        0.64670    0.88240    0.20190    1.000
    O41      O        0.70480    0.99140    0.30110    1.000
    O42      O        0.74520    0.86270    0.48670    1.000
    O43      O        0.80097    0.89850    0.35600    1.000
    O44      O        0.75640    0.22570    0.42920    1.000
    O45      O        0.74200    0.74850    0.63170    1.000
    O46      O        0.69800    0.07860    0.14870    1.000
    O47      O        0.80550    0.01070    0.21060    1.000
    O48      O        0.77100    0.47250    0.51810    1.000
    O49      O        0.52190    0.85490    0.61410    1.000
    O50      O        0.52960    0.66400    0.43620    1.000
    O51      O        0.54620    0.36860    0.42770    1.000
    O52      O        0.54830    0.12470    0.56900    1.000
    O53      O        0.98100    0.17320    0.58290    1.000
    O54      O        0.94890    0.60740    0.45800    1.000
    O55      O        0.96560    0.33730    0.39480    1.000
    O56      O        0.96130    0.88160    0.58300    1.000
    O57      O        0.86430    0.84240    0.28550    1.000
    O58      O        0.76750    0.21350    0.59040    1.000
    O59      O        0.93850    0.56920    0.30330    1.000
    H4       H        0.93190    0.50620    0.26450    1.000
    O60      O        0.71070    0.01510    0.59630    1.000
    H5       H        0.69610    0.00620    0.63520    1.000
    O61      O        0.59050    0.57000    0.36340    1.000
    H6       H        0.57460    0.56490    0.31910    1.000
    O62      O        0.92050    0.07740    0.65790    1.000
    O63      O        0.55800    0.04090    0.72050    1.000
    O64      O        0.64600    0.17480    0.23980    1.000
    Co13     Co       0.87177    0.28094    0.94054    1.000
    Co14     Co       0.62837    0.79193    0.08955    1.000
    Co15     Co       0.75050    0.49495    0.89116    1.000
    Co16     Co       0.75353    0.51374    0.63328    1.000
    Co17     Co       0.49226    0.73808    0.01146    1.000
    Co18     Co       0.00636    0.24121    0.98640    1.000
    P17      P        0.83067    0.53200    0.79455    1.000
    P18      P        0.78096    0.20710    0.00973    1.000
    P19      P        0.93620    0.01730    0.89025    1.000
    P20      P        0.71830    0.65510    0.05843    1.000
    P21      P        0.56479    0.96290    0.94004    1.000
    P22      P        0.94364    0.44520    0.08065    1.000
    P23      P        0.55725    0.51900    0.12888    1.000
    P24      P        0.67450    0.47010    0.72315    1.000
    O65      O        0.82860    0.23090    0.01190    1.000
    O66      O        0.85110    0.37570    0.83140    1.000
    O67      O        0.91461    0.42280    0.99750    1.000
    O68      O        0.89080    0.07100    0.89600    1.000
    O69      O        0.59480    0.95270    0.02070    1.000
    O70      O        0.67552    0.72990    0.02790    1.000
    O71      O        0.60004    0.58860    0.11470    1.000
    O72      O        0.64670    0.61760    0.70190    1.000
    O73      O        0.70480    0.50860    0.80110    1.000
    O74      O        0.74520    0.63730    0.98670    1.000
    O75      O        0.80097    0.60150    0.85600    1.000
    O76      O        0.75640    0.27430    0.92920    1.000
    O77      O        0.74200    0.75150    0.13170    1.000
    O78      O        0.69800    0.42140    0.64870    1.000
    O79      O        0.80550    0.48930    0.71060    1.000
    O80      O        0.77100    0.02750    0.01810    1.000
    O81      O        0.52190    0.64510    0.11410    1.000
    O82      O        0.52960    0.83600    0.93620    1.000
    O83      O        0.54620    0.13140    0.92770    1.000
    O84      O        0.54830    0.37530    0.06900    1.000
    O85      O        0.98100    0.32680    0.08290    1.000
    O86      O        0.94890    0.89260    0.95800    1.000
    O87      O        0.96560    0.16270    0.89480    1.000
    O88      O        0.96130    0.61840    0.08300    1.000
    O89      O        0.86430    0.65760    0.78550    1.000
    O90      O        0.76750    0.28650    0.09040    1.000
    O91      O        0.93850    0.93080    0.80330    1.000
    H7       H        0.93190    0.99380    0.76450    1.000
    O92      O        0.71070    0.48490    0.09630    1.000
    H8       H        0.69610    0.49380    0.13520    1.000
    O93      O        0.59050    0.93000    0.86340    1.000
    H9       H        0.57460    0.93510    0.81910    1.000
    O94      O        0.92050    0.42260    0.15790    1.000
    O95      O        0.55800    0.45910    0.22050    1.000
    O96      O        0.64600    0.32520    0.73980    1.000
    Co19     Co       0.12823    0.78094    0.55946    1.000
    Co20     Co       0.37163    0.29193    0.41045    1.000
    Co21     Co       0.24950    0.99495    0.60884    1.000
    Co22     Co       0.24647    0.01374    0.86672    1.000
    Co23     Co       0.50774    0.23808    0.48854    1.000
    Co24     Co       0.99364    0.74121    0.51360    1.000
    P25      P        0.16933    0.03200    0.70545    1.000
    P26      P        0.21904    0.70710    0.49027    1.000
    P27      P        0.06380    0.51730    0.60975    1.000
    P28      P        0.28170    0.15510    0.44157    1.000
    P29      P        0.43521    0.46290    0.55996    1.000
    P30      P        0.05636    0.94520    0.41935    1.000
    P31      P        0.44275    0.01900    0.37112    1.000
    P32      P        0.32550    0.97010    0.77685    1.000
    O97      O        0.17140    0.73090    0.48810    1.000
    O98      O        0.14890    0.87570    0.66860    1.000
    O99      O        0.08539    0.92280    0.50250    1.000
    O100     O        0.10920    0.57100    0.60400    1.000
    O101     O        0.40520    0.45270    0.47930    1.000
    O102     O        0.32448    0.22990    0.47210    1.000
    O103     O        0.39996    0.08860    0.38530    1.000
    O104     O        0.35330    0.11760    0.79810    1.000
    O105     O        0.29520    0.00860    0.69890    1.000
    O106     O        0.25480    0.13730    0.51330    1.000
    O107     O        0.19903    0.10150    0.64400    1.000
    O108     O        0.24360    0.77430    0.57080    1.000
    O109     O        0.25800    0.25150    0.36830    1.000
    O110     O        0.30200    0.92140    0.85130    1.000
    O111     O        0.19450    0.98930    0.78940    1.000
    O112     O        0.22900    0.52750    0.48190    1.000
    O113     O        0.47810    0.14510    0.38590    1.000
    O114     O        0.47040    0.33600    0.56380    1.000
    O115     O        0.45380    0.63140    0.57230    1.000
    O116     O        0.45170    0.87530    0.43100    1.000
    O117     O        0.01900    0.82680    0.41710    1.000
    O118     O        0.05110    0.39260    0.54200    1.000
    O119     O        0.03440    0.66270    0.60520    1.000
    O120     O        0.03870    0.11840    0.41700    1.000
    O121     O        0.13570    0.15760    0.71450    1.000
    O122     O        0.23250    0.78650    0.40960    1.000
    O123     O        0.06150    0.43080    0.69670    1.000
    H10      H        0.06810    0.49380    0.73550    1.000
    O124     O        0.28930    0.98490    0.40370    1.000
    H11      H        0.30390    0.99380    0.36480    1.000
    O125     O        0.40950    0.43000    0.63660    1.000
    H12      H        0.42540    0.43510    0.68090    1.000
    O126     O        0.07950    0.92260    0.34210    1.000
    O127     O        0.44200    0.95910    0.27950    1.000
    O128     O        0.35400    0.82520    0.76020    1.000
