# CIF file generated by openbabel 3.1.0, see https://openbabel.org
data_I
_chemical_name_common 'image0'
_cell_length_a 32.721
_cell_length_b 32.721
_cell_length_c 9.316
_cell_angle_alpha 90
_cell_angle_beta 90
_cell_angle_gamma 120
_space_group_name_H-M_alt 'P 1'
_space_group_name_Hall 'P 1'
loop_
    _symmetry_equiv_pos_as_xyz
    x,y,z
loop_
    _atom_site_label
    _atom_site_type_symbol
    _atom_site_fract_x
    _atom_site_fract_y
    _atom_site_fract_z
    _atom_site_occupancy
    N1       N        0.53316    0.99786    0.82120    1.000
    N2       N        0.44174    0.94325    0.92910    1.000
    N3       N        0.24045    0.86321    0.23820    1.000
    C1       C        0.58079    0.02505    0.79480    1.000
    C2       C        0.59308    0.00873    0.66680    1.000
    H1       H        0.62370    0.02150    0.62590    1.000
    C3       C        0.55316    0.97208    0.61670    1.000
    H2       H        0.55010    0.95410    0.53320    1.000
    C4       C        0.51575    0.96502    0.71280    1.000
    C5       C        0.46936    0.92796    0.70060    1.000
    C6       C        0.43496    0.91847    0.80360    1.000
    C7       C        0.38605    0.88202    0.78970    1.000
    H3       H        0.37250    0.86000    0.71340    1.000
    C8       C        0.36346    0.88532    0.90500    1.000
    H4       H        0.33080    0.86610    0.92540    1.000
    C9       C        0.39767    0.92327    0.99250    1.000
    C10      C        0.38685    0.93837    0.11920    1.000
    C11      C        0.33615    0.91301    0.16330    1.000
    C12      C        0.31991    0.87996    0.27290    1.000
    H5       H        0.34120    0.87370    0.32470    1.000
    C13      C        0.27236    0.85627    0.30570    1.000
    H6       H        0.26180    0.83360    0.38100    1.000
    C14      C        0.25642    0.89519    0.13340    1.000
    H7       H        0.23440    0.90080    0.08380    1.000
    C15      C        0.30325    0.92068    0.09250    1.000
    H8       H        0.31280    0.94310    0.01690    1.000
    C16      C        0.45581    0.89620    0.57190    1.000
    C17      C        0.44225    0.84905    0.58560    1.000
    H9       H        0.44190    0.83650    0.67780    1.000
    C18      C        0.42905    0.81956    0.46520    1.000
    H10      H        0.42000    0.78730    0.47670    1.000
    C19      C        0.42897    0.83682    0.32970    1.000
    C20      C        0.44251    0.88404    0.31670    1.000
    H11      H        0.44260    0.89650    0.22450    1.000
    C21      C        0.45592    0.91348    0.43500    1.000
    H12      H        0.46530    0.94580    0.42290    1.000
    C22      C        0.41604    0.80554    0.19740    1.000
    H13      H        0.40330    0.81740    0.12350    1.000
    H14      H        0.39220    0.77320    0.22300    1.000
    H15      H        0.44420    0.80590    0.16050    1.000
    N4       N        0.46684    0.00214    0.17880    1.000
    N5       N        0.55826    0.05675    0.07090    1.000
    N6       N        0.75955    0.13679    0.76180    1.000
    C23      C        0.41921    0.97495    0.20520    1.000
    C24      C        0.40692    0.99127    0.33320    1.000
    H16      H        0.37630    0.97850    0.37410    1.000
    C25      C        0.44684    0.02792    0.38330    1.000
    H17      H        0.44990    0.04590    0.46680    1.000
    C26      C        0.48425    0.03498    0.28720    1.000
    C27      C        0.53064    0.07204    0.29940    1.000
    C28      C        0.56504    0.08153    0.19640    1.000
    C29      C        0.61395    0.11798    0.21030    1.000
    H18      H        0.62750    0.14000    0.28660    1.000
    C30      C        0.63654    0.11468    0.09500    1.000
    H19      H        0.66920    0.13390    0.07460    1.000
    C31      C        0.60233    0.07673    0.00750    1.000
    C32      C        0.61315    0.06163    0.88080    1.000
    C33      C        0.66385    0.08699    0.83670    1.000
    C34      C        0.68009    0.12004    0.72710    1.000
    H20      H        0.65880    0.12630    0.67530    1.000
    C35      C        0.72764    0.14373    0.69430    1.000
    H21      H        0.73820    0.16640    0.61900    1.000
    C36      C        0.74358    0.10481    0.86660    1.000
    H22      H        0.76560    0.09920    0.91620    1.000
    C37      C        0.69675    0.07932    0.90750    1.000
    H23      H        0.68720    0.05690    0.98310    1.000
    C38      C        0.54419    0.10380    0.42810    1.000
    C39      C        0.55775    0.15095    0.41440    1.000
    H24      H        0.55810    0.16350    0.32220    1.000
    C40      C        0.57095    0.18044    0.53480    1.000
    H25      H        0.58000    0.21270    0.52330    1.000
    C41      C        0.57103    0.16318    0.67030    1.000
    C42      C        0.55749    0.11596    0.68330    1.000
    H26      H        0.55740    0.10350    0.77550    1.000
    C43      C        0.54408    0.08652    0.56500    1.000
    H27      H        0.53470    0.05420    0.57710    1.000
    C44      C        0.58396    0.19446    0.80260    1.000
    H28      H        0.59670    0.18260    0.87650    1.000
    H29      H        0.60780    0.22680    0.77700    1.000
    H30      H        0.55580    0.19410    0.83950    1.000
    Co1      Co       0.50000    0.00000    0.00000    1.000
    N7       N        0.19983    0.33119    0.15453    1.000
    N8       N        0.10841    0.27658    0.26243    1.000
    N9       N        0.90712    0.19654    0.57153    1.000
    C45      C        0.24746    0.35838    0.12813    1.000
    C46      C        0.25975    0.34206    0.00013    1.000
    H31      H        0.29037    0.35483    0.95923    1.000
    C47      C        0.21983    0.30541    0.95003    1.000
    H32      H        0.21677    0.28743    0.86653    1.000
    C48      C        0.18242    0.29835    0.04613    1.000
    C49      C        0.13603    0.26129    0.03393    1.000
    C50      C        0.10163    0.25180    0.13693    1.000
    C51      C        0.05272    0.21535    0.12303    1.000
    H33      H        0.03917    0.19333    0.04673    1.000
    C52      C        0.03013    0.21865    0.23833    1.000
    H34      H        0.99747    0.19943    0.25873    1.000
    C53      C        0.06434    0.25660    0.32583    1.000
    C54      C        0.05352    0.27170    0.45253    1.000
    C55      C        0.00282    0.24634    0.49663    1.000
    C56      C        0.98658    0.21329    0.60623    1.000
    H35      H        0.00787    0.20703    0.65803    1.000
    C57      C        0.93903    0.18960    0.63903    1.000
    H36      H        0.92847    0.16693    0.71433    1.000
    C58      C        0.92309    0.22852    0.46673    1.000
    H37      H        0.90107    0.23413    0.41713    1.000
    C59      C        0.96992    0.25401    0.42583    1.000
    H38      H        0.97947    0.27643    0.35023    1.000
    C60      C        0.12248    0.22953    0.90523    1.000
    C61      C        0.10892    0.18238    0.91893    1.000
    H39      H        0.10857    0.16983    0.01113    1.000
    C62      C        0.09572    0.15289    0.79853    1.000
    H40      H        0.08667    0.12063    0.81003    1.000
    C63      C        0.09564    0.17015    0.66303    1.000
    C64      C        0.10918    0.21737    0.65003    1.000
    H41      H        0.10927    0.22983    0.55783    1.000
    C65      C        0.12259    0.24681    0.76833    1.000
    H42      H        0.13197    0.27913    0.75623    1.000
    C66      C        0.08271    0.13887    0.53073    1.000
    H43      H        0.06997    0.15073    0.45683    1.000
    H44      H        0.05887    0.10653    0.55633    1.000
    H45      H        0.11087    0.13923    0.49383    1.000
    N10      N        0.13351    0.33547    0.51213    1.000
    N11      N        0.22493    0.39008    0.40423    1.000
    N12      N        0.42622    0.47012    0.09513    1.000
    C67      C        0.08588    0.30828    0.53853    1.000
    C68      C        0.07359    0.32460    0.66653    1.000
    H46      H        0.04297    0.31183    0.70743    1.000
    C69      C        0.11351    0.36125    0.71663    1.000
    H47      H        0.11657    0.37923    0.80013    1.000
    C70      C        0.15092    0.36831    0.62053    1.000
    C71      C        0.19731    0.40537    0.63273    1.000
    C72      C        0.23171    0.41486    0.52973    1.000
    C73      C        0.28062    0.45131    0.54363    1.000
    H48      H        0.29417    0.47333    0.61993    1.000
    C74      C        0.30321    0.44801    0.42833    1.000
    H49      H        0.33587    0.46723    0.40793    1.000
    C75      C        0.26900    0.41006    0.34083    1.000
    C76      C        0.27982    0.39496    0.21413    1.000
    C77      C        0.33052    0.42032    0.17003    1.000
    C78      C        0.34676    0.45337    0.06043    1.000
    H50      H        0.32547    0.45963    0.00863    1.000
    C79      C        0.39431    0.47706    0.02763    1.000
    H51      H        0.40487    0.49973    0.95233    1.000
    C80      C        0.41025    0.43814    0.19993    1.000
    H52      H        0.43227    0.43253    0.24953    1.000
    C81      C        0.36342    0.41265    0.24083    1.000
    H53      H        0.35387    0.39023    0.31643    1.000
    C82      C        0.21086    0.43713    0.76143    1.000
    C83      C        0.22442    0.48428    0.74773    1.000
    H54      H        0.22477    0.49683    0.65553    1.000
    C84      C        0.23762    0.51377    0.86813    1.000
    H55      H        0.24667    0.54603    0.85663    1.000
    C85      C        0.23770    0.49651    0.00363    1.000
    C86      C        0.22416    0.44929    0.01663    1.000
    H56      H        0.22407    0.43683    0.10883    1.000
    C87      C        0.21075    0.41985    0.89833    1.000
    H57      H        0.20137    0.38753    0.91043    1.000
    C88      C        0.25063    0.52779    0.13593    1.000
    H58      H        0.26337    0.51593    0.20983    1.000
    H59      H        0.27447    0.56013    0.11033    1.000
    H60      H        0.22247    0.52743    0.17283    1.000
    Co2      Co       0.16667    0.33333    0.33333    1.000
    N13      N        0.86649    0.66453    0.48787    1.000
    N14      N        0.77507    0.60992    0.59577    1.000
    N15      N        0.57378    0.52988    0.90487    1.000
    C89      C        0.91412    0.69172    0.46147    1.000
    C90      C        0.92641    0.67540    0.33347    1.000
    H61      H        0.95703    0.68817    0.29257    1.000
    C91      C        0.88649    0.63875    0.28337    1.000
    H62      H        0.88343    0.62077    0.19987    1.000
    C92      C        0.84908    0.63169    0.37947    1.000
    C93      C        0.80269    0.59463    0.36727    1.000
    C94      C        0.76829    0.58514    0.47027    1.000
    C95      C        0.71938    0.54869    0.45637    1.000
    H63      H        0.70583    0.52667    0.38007    1.000
    C96      C        0.69679    0.55199    0.57167    1.000
    H64      H        0.66413    0.53277    0.59207    1.000
    C97      C        0.73100    0.58994    0.65917    1.000
    C98      C        0.72018    0.60504    0.78587    1.000
    C99      C        0.66948    0.57968    0.82997    1.000
    C100     C        0.65324    0.54663    0.93957    1.000
    H65      H        0.67453    0.54037    0.99137    1.000
    C101     C        0.60569    0.52294    0.97237    1.000
    H66      H        0.59513    0.50027    0.04767    1.000
    C102     C        0.58975    0.56186    0.80007    1.000
    H67      H        0.56773    0.56747    0.75047    1.000
    C103     C        0.63658    0.58735    0.75917    1.000
    H68      H        0.64613    0.60977    0.68357    1.000
    C104     C        0.78914    0.56287    0.23857    1.000
    C105     C        0.77558    0.51572    0.25227    1.000
    H69      H        0.77523    0.50317    0.34447    1.000
    C106     C        0.76238    0.48623    0.13187    1.000
    H70      H        0.75333    0.45397    0.14337    1.000
    C107     C        0.76230    0.50349    0.99637    1.000
    C108     C        0.77584    0.55071    0.98337    1.000
    H71      H        0.77593    0.56317    0.89117    1.000
    C109     C        0.78925    0.58015    0.10167    1.000
    H72      H        0.79863    0.61247    0.08957    1.000
    C110     C        0.74937    0.47221    0.86407    1.000
    H73      H        0.73663    0.48407    0.79017    1.000
    H74      H        0.72553    0.43987    0.88967    1.000
    H75      H        0.77753    0.47257    0.82717    1.000
    N16      N        0.80017    0.66881    0.84547    1.000
    N17      N        0.89159    0.72342    0.73757    1.000
    N18      N        0.09288    0.80346    0.42847    1.000
    C111     C        0.75254    0.64162    0.87187    1.000
    C112     C        0.74025    0.65794    0.99987    1.000
    H76      H        0.70963    0.64517    0.04077    1.000
    C113     C        0.78017    0.69459    0.04997    1.000
    H77      H        0.78323    0.71257    0.13347    1.000
    C114     C        0.81758    0.70165    0.95387    1.000
    C115     C        0.86397    0.73871    0.96607    1.000
    C116     C        0.89837    0.74820    0.86307    1.000
    C117     C        0.94728    0.78465    0.87697    1.000
    H78      H        0.96083    0.80667    0.95327    1.000
    C118     C        0.96987    0.78135    0.76167    1.000
    H79      H        0.00253    0.80057    0.74127    1.000
    C119     C        0.93566    0.74340    0.67417    1.000
    C120     C        0.94648    0.72830    0.54747    1.000
    C121     C        0.99718    0.75366    0.50337    1.000
    C122     C        0.01342    0.78671    0.39377    1.000
    H80      H        0.99213    0.79297    0.34197    1.000
    C123     C        0.06097    0.81040    0.36097    1.000
    H81      H        0.07153    0.83307    0.28567    1.000
    C124     C        0.07691    0.77148    0.53327    1.000
    H82      H        0.09893    0.76587    0.58287    1.000
    C125     C        0.03008    0.74599    0.57417    1.000
    H83      H        0.02053    0.72357    0.64977    1.000
    C126     C        0.87752    0.77047    0.09477    1.000
    C127     C        0.89108    0.81762    0.08107    1.000
    H84      H        0.89143    0.83017    0.98887    1.000
    C128     C        0.90428    0.84711    0.20147    1.000
    H85      H        0.91333    0.87937    0.18997    1.000
    C129     C        0.90436    0.82985    0.33697    1.000
    C130     C        0.89082    0.78263    0.34997    1.000
    H86      H        0.89073    0.77017    0.44217    1.000
    C131     C        0.87741    0.75319    0.23167    1.000
    H87      H        0.86803    0.72087    0.24377    1.000
    C132     C        0.91729    0.86113    0.46927    1.000
    H88      H        0.93003    0.84927    0.54317    1.000
    H89      H        0.94113    0.89347    0.44367    1.000
    H90      H        0.88913    0.86077    0.50617    1.000
    Co3      Co       0.83333    0.66667    0.66667    1.000
    N19      N        0.00214    0.53530    0.82120    1.000
    N20      N        0.05675    0.49849    0.92910    1.000
    N21      N        0.13679    0.37724    0.23820    1.000
    C133     C        0.97495    0.55574    0.79480    1.000
    C134     C        0.99127    0.58435    0.66680    1.000
    H91      H        0.97850    0.60220    0.62590    1.000
    C135     C        0.02792    0.58108    0.61670    1.000
    H92      H        0.04590    0.59600    0.53320    1.000
    C136     C        0.03498    0.55073    0.71280    1.000
    C137     C        0.07204    0.54140    0.70060    1.000
    C138     C        0.08153    0.51649    0.80360    1.000
    C139     C        0.11798    0.50403    0.78970    1.000
    H93      H        0.14000    0.51250    0.71340    1.000
    C140     C        0.11468    0.47814    0.90500    1.000
    H94      H        0.13390    0.46470    0.92540    1.000
    C141     C        0.07673    0.47440    0.99250    1.000
    C142     C        0.06163    0.44848    0.11920    1.000
    C143     C        0.08699    0.42314    0.16330    1.000
    C144     C        0.12004    0.43995    0.27290    1.000
    H95      H        0.12630    0.46750    0.32470    1.000
    C145     C        0.14373    0.41609    0.30570    1.000
    H96      H        0.16640    0.42820    0.38100    1.000
    C146     C        0.10481    0.36123    0.13340    1.000
    H97      H        0.09920    0.33360    0.08380    1.000
    C147     C        0.07932    0.38257    0.09250    1.000
    H98      H        0.05690    0.36970    0.01690    1.000
    C148     C        0.10380    0.55961    0.57190    1.000
    C149     C        0.15095    0.59320    0.58560    1.000
    H99      H        0.16350    0.60540    0.67780    1.000
    C150     C        0.18044    0.60949    0.46520    1.000
    H100     H        0.21270    0.63270    0.47670    1.000
    C151     C        0.16318    0.59215    0.32970    1.000
    C152     C        0.11596    0.55847    0.31670    1.000
    H101     H        0.10350    0.54610    0.22450    1.000
    C153     C        0.08652    0.54244    0.43500    1.000
    H102     H        0.05420    0.51950    0.42290    1.000
    C154     C        0.19446    0.61050    0.19740    1.000
    H103     H        0.18260    0.58590    0.12350    1.000
    H104     H        0.22680    0.61900    0.22300    1.000
    H105     H        0.19410    0.63830    0.16050    1.000
    N22      N        0.99786    0.46470    0.17880    1.000
    N23      N        0.94325    0.50151    0.07090    1.000
    N24      N        0.86321    0.62276    0.76180    1.000
    C155     C        0.02505    0.44426    0.20520    1.000
    C156     C        0.00873    0.41565    0.33320    1.000
    H106     H        0.02150    0.39780    0.37410    1.000
    C157     C        0.97208    0.41892    0.38330    1.000
    H107     H        0.95410    0.40400    0.46680    1.000
    C158     C        0.96502    0.44927    0.28720    1.000
    C159     C        0.92796    0.45860    0.29940    1.000
    C160     C        0.91847    0.48351    0.19640    1.000
    C161     C        0.88202    0.49597    0.21030    1.000
    H108     H        0.86000    0.48750    0.28660    1.000
    C162     C        0.88532    0.52186    0.09500    1.000
    H109     H        0.86610    0.53530    0.07460    1.000
    C163     C        0.92327    0.52560    0.00750    1.000
    C164     C        0.93837    0.55152    0.88080    1.000
    C165     C        0.91301    0.57686    0.83670    1.000
    C166     C        0.87996    0.56005    0.72710    1.000
    H110     H        0.87370    0.53250    0.67530    1.000
    C167     C        0.85627    0.58391    0.69430    1.000
    H111     H        0.83360    0.57180    0.61900    1.000
    C168     C        0.89519    0.63877    0.86660    1.000
    H112     H        0.90080    0.66640    0.91620    1.000
    C169     C        0.92068    0.61743    0.90750    1.000
    H113     H        0.94310    0.63030    0.98310    1.000
    C170     C        0.89620    0.44039    0.42810    1.000
    C171     C        0.84905    0.40680    0.41440    1.000
    H114     H        0.83650    0.39460    0.32220    1.000
    C172     C        0.81956    0.39051    0.53480    1.000
    H115     H        0.78730    0.36730    0.52330    1.000
    C173     C        0.83682    0.40785    0.67030    1.000
    C174     C        0.88404    0.44153    0.68330    1.000
    H116     H        0.89650    0.45390    0.77550    1.000
    C175     C        0.91348    0.45756    0.56500    1.000
    H117     H        0.94580    0.48050    0.57710    1.000
    C176     C        0.80554    0.38950    0.80260    1.000
    H118     H        0.81740    0.41410    0.87650    1.000
    H119     H        0.77320    0.38100    0.77700    1.000
    H120     H        0.80590    0.36170    0.83950    1.000
    Co4      Co       0.00000    0.50000    0.00000    1.000
    N25      N        0.66881    0.86863    0.15453    1.000
    N26      N        0.72342    0.83182    0.26243    1.000
    N27      N        0.80346    0.71057    0.57153    1.000
    C177     C        0.64162    0.88907    0.12813    1.000
    C178     C        0.65794    0.91768    0.00013    1.000
    H121     H        0.64517    0.93553    0.95923    1.000
    C179     C        0.69459    0.91441    0.95003    1.000
    H122     H        0.71257    0.92933    0.86653    1.000
    C180     C        0.70165    0.88406    0.04613    1.000
    C181     C        0.73871    0.87473    0.03393    1.000
    C182     C        0.74820    0.84982    0.13693    1.000
    C183     C        0.78465    0.83736    0.12303    1.000
    H123     H        0.80667    0.84583    0.04673    1.000
    C184     C        0.78135    0.81147    0.23833    1.000
    H124     H        0.80057    0.79803    0.25873    1.000
    C185     C        0.74340    0.80773    0.32583    1.000
    C186     C        0.72830    0.78181    0.45253    1.000
    C187     C        0.75366    0.75647    0.49663    1.000
    C188     C        0.78671    0.77328    0.60623    1.000
    H125     H        0.79297    0.80083    0.65803    1.000
    C189     C        0.81040    0.74942    0.63903    1.000
    H126     H        0.83307    0.76153    0.71433    1.000
    C190     C        0.77148    0.69456    0.46673    1.000
    H127     H        0.76587    0.66693    0.41713    1.000
    C191     C        0.74599    0.71590    0.42583    1.000
    H128     H        0.72357    0.70303    0.35023    1.000
    C192     C        0.77047    0.89294    0.90523    1.000
    C193     C        0.81762    0.92653    0.91893    1.000
    H129     H        0.83017    0.93873    0.01113    1.000
    C194     C        0.84711    0.94282    0.79853    1.000
    H130     H        0.87937    0.96603    0.81003    1.000
    C195     C        0.82985    0.92548    0.66303    1.000
    C196     C        0.78263    0.89180    0.65003    1.000
    H131     H        0.77017    0.87943    0.55783    1.000
    C197     C        0.75319    0.87577    0.76833    1.000
    H132     H        0.72087    0.85283    0.75623    1.000
    C198     C        0.86113    0.94383    0.53073    1.000
    H133     H        0.84927    0.91923    0.45683    1.000
    H134     H        0.89347    0.95233    0.55633    1.000
    H135     H        0.86077    0.97163    0.49383    1.000
    N28      N        0.66453    0.79803    0.51213    1.000
    N29      N        0.60992    0.83484    0.40423    1.000
    N30      N        0.52988    0.95609    0.09513    1.000
    C199     C        0.69172    0.77759    0.53853    1.000
    C200     C        0.67540    0.74898    0.66653    1.000
    H136     H        0.68817    0.73113    0.70743    1.000
    C201     C        0.63875    0.75225    0.71663    1.000
    H137     H        0.62077    0.73733    0.80013    1.000
    C202     C        0.63169    0.78260    0.62053    1.000
    C203     C        0.59463    0.79193    0.63273    1.000
    C204     C        0.58514    0.81684    0.52973    1.000
    C205     C        0.54869    0.82930    0.54363    1.000
    H138     H        0.52667    0.82083    0.61993    1.000
    C206     C        0.55199    0.85519    0.42833    1.000
    H139     H        0.53277    0.86863    0.40793    1.000
    C207     C        0.58994    0.85893    0.34083    1.000
    C208     C        0.60504    0.88485    0.21413    1.000
    C209     C        0.57968    0.91019    0.17003    1.000
    C210     C        0.54663    0.89338    0.06043    1.000
    H140     H        0.54037    0.86583    0.00863    1.000
    C211     C        0.52294    0.91724    0.02763    1.000
    H141     H        0.50027    0.90513    0.95233    1.000
    C212     C        0.56186    0.97210    0.19993    1.000
    H142     H        0.56747    0.99973    0.24953    1.000
    C213     C        0.58735    0.95076    0.24083    1.000
    H143     H        0.60977    0.96363    0.31643    1.000
    C214     C        0.56287    0.77372    0.76143    1.000
    C215     C        0.51572    0.74013    0.74773    1.000
    H144     H        0.50317    0.72793    0.65553    1.000
    C216     C        0.48623    0.72384    0.86813    1.000
    H145     H        0.45397    0.70063    0.85663    1.000
    C217     C        0.50349    0.74118    0.00363    1.000
    C218     C        0.55071    0.77486    0.01663    1.000
    H146     H        0.56317    0.78723    0.10883    1.000
    C219     C        0.58015    0.79089    0.89833    1.000
    H147     H        0.61247    0.81383    0.91043    1.000
    C220     C        0.47221    0.72283    0.13593    1.000
    H148     H        0.48407    0.74743    0.20983    1.000
    H149     H        0.43987    0.71433    0.11033    1.000
    H150     H        0.47257    0.69503    0.17283    1.000
    Co5      Co       0.66667    0.83333    0.33333    1.000
    N31      N        0.33547    0.20197    0.48787    1.000
    N32      N        0.39008    0.16516    0.59577    1.000
    N33      N        0.47012    0.04391    0.90487    1.000
    C221     C        0.30828    0.22241    0.46147    1.000
    C222     C        0.32460    0.25102    0.33347    1.000
    H151     H        0.31183    0.26887    0.29257    1.000
    C223     C        0.36125    0.24775    0.28337    1.000
    H152     H        0.37923    0.26267    0.19987    1.000
    C224     C        0.36831    0.21740    0.37947    1.000
    C225     C        0.40537    0.20807    0.36727    1.000
    C226     C        0.41486    0.18316    0.47027    1.000
    C227     C        0.45131    0.17070    0.45637    1.000
    H153     H        0.47333    0.17917    0.38007    1.000
    C228     C        0.44801    0.14481    0.57167    1.000
    H154     H        0.46723    0.13137    0.59207    1.000
    C229     C        0.41006    0.14107    0.65917    1.000
    C230     C        0.39496    0.11515    0.78587    1.000
    C231     C        0.42032    0.08981    0.82997    1.000
    C232     C        0.45337    0.10662    0.93957    1.000
    H155     H        0.45963    0.13417    0.99137    1.000
    C233     C        0.47706    0.08276    0.97237    1.000
    H156     H        0.49973    0.09487    0.04767    1.000
    C234     C        0.43814    0.02790    0.80007    1.000
    H157     H        0.43253    0.00027    0.75047    1.000
    C235     C        0.41265    0.04924    0.75917    1.000
    H158     H        0.39023    0.03637    0.68357    1.000
    C236     C        0.43713    0.22628    0.23857    1.000
    C237     C        0.48428    0.25987    0.25227    1.000
    H159     H        0.49683    0.27207    0.34447    1.000
    C238     C        0.51377    0.27616    0.13187    1.000
    H160     H        0.54603    0.29937    0.14337    1.000
    C239     C        0.49651    0.25882    0.99637    1.000
    C240     C        0.44929    0.22514    0.98337    1.000
    H161     H        0.43683    0.21277    0.89117    1.000
    C241     C        0.41985    0.20911    0.10167    1.000
    H162     H        0.38753    0.18617    0.08957    1.000
    C242     C        0.52779    0.27717    0.86407    1.000
    H163     H        0.51593    0.25257    0.79017    1.000
    H164     H        0.56013    0.28567    0.88967    1.000
    H165     H        0.52743    0.30497    0.82717    1.000
    N34      N        0.33119    0.13137    0.84547    1.000
    N35      N        0.27658    0.16818    0.73757    1.000
    N36      N        0.19654    0.28943    0.42847    1.000
    C243     C        0.35838    0.11093    0.87187    1.000
    C244     C        0.34206    0.08232    0.99987    1.000
    H166     H        0.35483    0.06447    0.04077    1.000
    C245     C        0.30541    0.08559    0.04997    1.000
    H167     H        0.28743    0.07067    0.13347    1.000
    C246     C        0.29835    0.11594    0.95387    1.000
    C247     C        0.26129    0.12527    0.96607    1.000
    C248     C        0.25180    0.15018    0.86307    1.000
    C249     C        0.21535    0.16264    0.87697    1.000
    H168     H        0.19333    0.15417    0.95327    1.000
    C250     C        0.21865    0.18853    0.76167    1.000
    H169     H        0.19943    0.20197    0.74127    1.000
    C251     C        0.25660    0.19227    0.67417    1.000
    C252     C        0.27170    0.21819    0.54747    1.000
    C253     C        0.24634    0.24353    0.50337    1.000
    C254     C        0.21329    0.22672    0.39377    1.000
    H170     H        0.20703    0.19917    0.34197    1.000
    C255     C        0.18960    0.25058    0.36097    1.000
    H171     H        0.16693    0.23847    0.28567    1.000
    C256     C        0.22852    0.30544    0.53327    1.000
    H172     H        0.23413    0.33307    0.58287    1.000
    C257     C        0.25401    0.28410    0.57417    1.000
    H173     H        0.27643    0.29697    0.64977    1.000
    C258     C        0.22953    0.10706    0.09477    1.000
    C259     C        0.18238    0.07347    0.08107    1.000
    H174     H        0.16983    0.06127    0.98887    1.000
    C260     C        0.15289    0.05718    0.20147    1.000
    H175     H        0.12063    0.03397    0.18997    1.000
    C261     C        0.17015    0.07452    0.33697    1.000
    C262     C        0.21737    0.10820    0.34997    1.000
    H176     H        0.22983    0.12057    0.44217    1.000
    C263     C        0.24681    0.12423    0.23167    1.000
    H177     H        0.27913    0.14717    0.24377    1.000
    C264     C        0.13887    0.05617    0.46927    1.000
    H178     H        0.15073    0.08077    0.54317    1.000
    H179     H        0.10653    0.04767    0.44367    1.000
    H180     H        0.13923    0.02837    0.50617    1.000
    Co6      Co       0.33333    0.16667    0.66667    1.000
    N37      N        0.46470    0.46684    0.82120    1.000
    N38      N        0.50151    0.55826    0.92910    1.000
    N39      N        0.62276    0.75955    0.23820    1.000
    C265     C        0.44426    0.41921    0.79480    1.000
    C266     C        0.41565    0.40692    0.66680    1.000
    H181     H        0.39780    0.37630    0.62590    1.000
    C267     C        0.41892    0.44684    0.61670    1.000
    H182     H        0.40400    0.44990    0.53320    1.000
    C268     C        0.44927    0.48425    0.71280    1.000
    C269     C        0.45860    0.53064    0.70060    1.000
    C270     C        0.48351    0.56504    0.80360    1.000
    C271     C        0.49597    0.61395    0.78970    1.000
    H183     H        0.48750    0.62750    0.71340    1.000
    C272     C        0.52186    0.63654    0.90500    1.000
    H184     H        0.53530    0.66920    0.92540    1.000
    C273     C        0.52560    0.60233    0.99250    1.000
    C274     C        0.55152    0.61315    0.11920    1.000
    C275     C        0.57686    0.66385    0.16330    1.000
    C276     C        0.56005    0.68009    0.27290    1.000
    H185     H        0.53250    0.65880    0.32470    1.000
    C277     C        0.58391    0.72764    0.30570    1.000
    H186     H        0.57180    0.73820    0.38100    1.000
    C278     C        0.63877    0.74358    0.13340    1.000
    H187     H        0.66640    0.76560    0.08380    1.000
    C279     C        0.61743    0.69675    0.09250    1.000
    H188     H        0.63030    0.68720    0.01690    1.000
    C280     C        0.44039    0.54419    0.57190    1.000
    C281     C        0.40680    0.55775    0.58560    1.000
    H189     H        0.39460    0.55810    0.67780    1.000
    C282     C        0.39051    0.57095    0.46520    1.000
    H190     H        0.36730    0.58000    0.47670    1.000
    C283     C        0.40785    0.57103    0.32970    1.000
    C284     C        0.44153    0.55749    0.31670    1.000
    H191     H        0.45390    0.55740    0.22450    1.000
    C285     C        0.45756    0.54408    0.43500    1.000
    H192     H        0.48050    0.53470    0.42290    1.000
    C286     C        0.38950    0.58396    0.19740    1.000
    H193     H        0.41410    0.59670    0.12350    1.000
    H194     H        0.38100    0.60780    0.22300    1.000
    H195     H        0.36170    0.55580    0.16050    1.000
    N40      N        0.53530    0.53316    0.17880    1.000
    N41      N        0.49849    0.44174    0.07090    1.000
    N42      N        0.37724    0.24045    0.76180    1.000
    C287     C        0.55574    0.58079    0.20520    1.000
    C288     C        0.58435    0.59308    0.33320    1.000
    H196     H        0.60220    0.62370    0.37410    1.000
    C289     C        0.58108    0.55316    0.38330    1.000
    H197     H        0.59600    0.55010    0.46680    1.000
    C290     C        0.55073    0.51575    0.28720    1.000
    C291     C        0.54140    0.46936    0.29940    1.000
    C292     C        0.51649    0.43496    0.19640    1.000
    C293     C        0.50403    0.38605    0.21030    1.000
    H198     H        0.51250    0.37250    0.28660    1.000
    C294     C        0.47814    0.36346    0.09500    1.000
    H199     H        0.46470    0.33080    0.07460    1.000
    C295     C        0.47440    0.39767    0.00750    1.000
    C296     C        0.44848    0.38685    0.88080    1.000
    C297     C        0.42314    0.33615    0.83670    1.000
    C298     C        0.43995    0.31991    0.72710    1.000
    H200     H        0.46750    0.34120    0.67530    1.000
    C299     C        0.41609    0.27236    0.69430    1.000
    H201     H        0.42820    0.26180    0.61900    1.000
    C300     C        0.36123    0.25642    0.86660    1.000
    H202     H        0.33360    0.23440    0.91620    1.000
    C301     C        0.38257    0.30325    0.90750    1.000
    H203     H        0.36970    0.31280    0.98310    1.000
    C302     C        0.55961    0.45581    0.42810    1.000
    C303     C        0.59320    0.44225    0.41440    1.000
    H204     H        0.60540    0.44190    0.32220    1.000
    C304     C        0.60949    0.42905    0.53480    1.000
    H205     H        0.63270    0.42000    0.52330    1.000
    C305     C        0.59215    0.42897    0.67030    1.000
    C306     C        0.55847    0.44251    0.68330    1.000
    H206     H        0.54610    0.44260    0.77550    1.000
    C307     C        0.54244    0.45592    0.56500    1.000
    H207     H        0.51950    0.46530    0.57710    1.000
    C308     C        0.61050    0.41604    0.80260    1.000
    H208     H        0.58590    0.40330    0.87650    1.000
    H209     H        0.61900    0.39220    0.77700    1.000
    H210     H        0.63830    0.44420    0.83950    1.000
    Co7      Co       0.50000    0.50000    0.00000    1.000
    N43      N        0.13137    0.80017    0.15453    1.000
    N44      N        0.16818    0.89159    0.26243    1.000
    N45      N        0.28943    0.09288    0.57153    1.000
    C309     C        0.11093    0.75254    0.12813    1.000
    C310     C        0.08232    0.74025    0.00013    1.000
    H211     H        0.06447    0.70963    0.95923    1.000
    C311     C        0.08559    0.78017    0.95003    1.000
    H212     H        0.07067    0.78323    0.86653    1.000
    C312     C        0.11594    0.81758    0.04613    1.000
    C313     C        0.12527    0.86397    0.03393    1.000
    C314     C        0.15018    0.89837    0.13693    1.000
    C315     C        0.16264    0.94728    0.12303    1.000
    H213     H        0.15417    0.96083    0.04673    1.000
    C316     C        0.18853    0.96987    0.23833    1.000
    H214     H        0.20197    0.00253    0.25873    1.000
    C317     C        0.19227    0.93566    0.32583    1.000
    C318     C        0.21819    0.94648    0.45253    1.000
    C319     C        0.24353    0.99718    0.49663    1.000
    C320     C        0.22672    0.01342    0.60623    1.000
    H215     H        0.19917    0.99213    0.65803    1.000
    C321     C        0.25058    0.06097    0.63903    1.000
    H216     H        0.23847    0.07153    0.71433    1.000
    C322     C        0.30544    0.07691    0.46673    1.000
    H217     H        0.33307    0.09893    0.41713    1.000
    C323     C        0.28410    0.03008    0.42583    1.000
    H218     H        0.29697    0.02053    0.35023    1.000
    C324     C        0.10706    0.87752    0.90523    1.000
    C325     C        0.07347    0.89108    0.91893    1.000
    H219     H        0.06127    0.89143    0.01113    1.000
    C326     C        0.05718    0.90428    0.79853    1.000
    H220     H        0.03397    0.91333    0.81003    1.000
    C327     C        0.07452    0.90436    0.66303    1.000
    C328     C        0.10820    0.89082    0.65003    1.000
    H221     H        0.12057    0.89073    0.55783    1.000
    C329     C        0.12423    0.87741    0.76833    1.000
    H222     H        0.14717    0.86803    0.75623    1.000
    C330     C        0.05617    0.91729    0.53073    1.000
    H223     H        0.08077    0.93003    0.45683    1.000
    H224     H        0.04767    0.94113    0.55633    1.000
    H225     H        0.02837    0.88913    0.49383    1.000
    N46      N        0.20197    0.86649    0.51213    1.000
    N47      N        0.16516    0.77507    0.40423    1.000
    N48      N        0.04391    0.57378    0.09513    1.000
    C331     C        0.22241    0.91412    0.53853    1.000
    C332     C        0.25102    0.92641    0.66653    1.000
    H226     H        0.26887    0.95703    0.70743    1.000
    C333     C        0.24775    0.88649    0.71663    1.000
    H227     H        0.26267    0.88343    0.80013    1.000
    C334     C        0.21740    0.84908    0.62053    1.000
    C335     C        0.20807    0.80269    0.63273    1.000
    C336     C        0.18316    0.76829    0.52973    1.000
    C337     C        0.17070    0.71938    0.54363    1.000
    H228     H        0.17917    0.70583    0.61993    1.000
    C338     C        0.14481    0.69679    0.42833    1.000
    H229     H        0.13137    0.66413    0.40793    1.000
    C339     C        0.14107    0.73100    0.34083    1.000
    C340     C        0.11515    0.72018    0.21413    1.000
    C341     C        0.08981    0.66948    0.17003    1.000
    C342     C        0.10662    0.65324    0.06043    1.000
    H230     H        0.13417    0.67453    0.00863    1.000
    C343     C        0.08276    0.60569    0.02763    1.000
    H231     H        0.09487    0.59513    0.95233    1.000
    C344     C        0.02790    0.58975    0.19993    1.000
    H232     H        0.00027    0.56773    0.24953    1.000
    C345     C        0.04924    0.63658    0.24083    1.000
    H233     H        0.03637    0.64613    0.31643    1.000
    C346     C        0.22628    0.78914    0.76143    1.000
    C347     C        0.25987    0.77558    0.74773    1.000
    H234     H        0.27207    0.77523    0.65553    1.000
    C348     C        0.27616    0.76238    0.86813    1.000
    H235     H        0.29937    0.75333    0.85663    1.000
    C349     C        0.25882    0.76230    0.00363    1.000
    C350     C        0.22514    0.77584    0.01663    1.000
    H236     H        0.21277    0.77593    0.10883    1.000
    C351     C        0.20911    0.78925    0.89833    1.000
    H237     H        0.18617    0.79863    0.91043    1.000
    C352     C        0.27717    0.74937    0.13593    1.000
    H238     H        0.25257    0.73663    0.20983    1.000
    H239     H        0.28567    0.72553    0.11033    1.000
    H240     H        0.30497    0.77753    0.17283    1.000
    Co8      Co       0.16667    0.83333    0.33333    1.000
    N49      N        0.79803    0.13351    0.48787    1.000
    N50      N        0.83484    0.22493    0.59577    1.000
    N51      N        0.95609    0.42622    0.90487    1.000
    C353     C        0.77759    0.08588    0.46147    1.000
    C354     C        0.74898    0.07359    0.33347    1.000
    H241     H        0.73113    0.04297    0.29257    1.000
    C355     C        0.75225    0.11351    0.28337    1.000
    H242     H        0.73733    0.11657    0.19987    1.000
    C356     C        0.78260    0.15092    0.37947    1.000
    C357     C        0.79193    0.19731    0.36727    1.000
    C358     C        0.81684    0.23171    0.47027    1.000
    C359     C        0.82930    0.28062    0.45637    1.000
    H243     H        0.82083    0.29417    0.38007    1.000
    C360     C        0.85519    0.30321    0.57167    1.000
    H244     H        0.86863    0.33587    0.59207    1.000
    C361     C        0.85893    0.26900    0.65917    1.000
    C362     C        0.88485    0.27982    0.78587    1.000
    C363     C        0.91019    0.33052    0.82997    1.000
    C364     C        0.89338    0.34676    0.93957    1.000
    H245     H        0.86583    0.32547    0.99137    1.000
    C365     C        0.91724    0.39431    0.97237    1.000
    H246     H        0.90513    0.40487    0.04767    1.000
    C366     C        0.97210    0.41025    0.80007    1.000
    H247     H        0.99973    0.43227    0.75047    1.000
    C367     C        0.95076    0.36342    0.75917    1.000
    H248     H        0.96363    0.35387    0.68357    1.000
    C368     C        0.77372    0.21086    0.23857    1.000
    C369     C        0.74013    0.22442    0.25227    1.000
    H249     H        0.72793    0.22477    0.34447    1.000
    C370     C        0.72384    0.23762    0.13187    1.000
    H250     H        0.70063    0.24667    0.14337    1.000
    C371     C        0.74118    0.23770    0.99637    1.000
    C372     C        0.77486    0.22416    0.98337    1.000
    H251     H        0.78723    0.22407    0.89117    1.000
    C373     C        0.79089    0.21075    0.10167    1.000
    H252     H        0.81383    0.20137    0.08957    1.000
    C374     C        0.72283    0.25063    0.86407    1.000
    H253     H        0.74743    0.26337    0.79017    1.000
    H254     H        0.71433    0.27447    0.88967    1.000
    H255     H        0.69503    0.22247    0.82717    1.000
    N52      N        0.86863    0.19983    0.84547    1.000
    N53      N        0.83182    0.10841    0.73757    1.000
    N54      N        0.71057    0.90712    0.42847    1.000
    C375     C        0.88907    0.24746    0.87187    1.000
    C376     C        0.91768    0.25975    0.99987    1.000
    H256     H        0.93553    0.29037    0.04077    1.000
    C377     C        0.91441    0.21983    0.04997    1.000
    H257     H        0.92933    0.21677    0.13347    1.000
    C378     C        0.88406    0.18242    0.95387    1.000
    C379     C        0.87473    0.13603    0.96607    1.000
    C380     C        0.84982    0.10163    0.86307    1.000
    C381     C        0.83736    0.05272    0.87697    1.000
    H258     H        0.84583    0.03917    0.95327    1.000
    C382     C        0.81147    0.03013    0.76167    1.000
    H259     H        0.79803    0.99747    0.74127    1.000
    C383     C        0.80773    0.06434    0.67417    1.000
    C384     C        0.78181    0.05352    0.54747    1.000
    C385     C        0.75647    0.00282    0.50337    1.000
    C386     C        0.77328    0.98658    0.39377    1.000
    H260     H        0.80083    0.00787    0.34197    1.000
    C387     C        0.74942    0.93903    0.36097    1.000
    H261     H        0.76153    0.92847    0.28567    1.000
    C388     C        0.69456    0.92309    0.53327    1.000
    H262     H        0.66693    0.90107    0.58287    1.000
    C389     C        0.71590    0.96992    0.57417    1.000
    H263     H        0.70303    0.97947    0.64977    1.000
    C390     C        0.89294    0.12248    0.09477    1.000
    C391     C        0.92653    0.10892    0.08107    1.000
    H264     H        0.93873    0.10857    0.98887    1.000
    C392     C        0.94282    0.09572    0.20147    1.000
    H265     H        0.96603    0.08667    0.18997    1.000
    C393     C        0.92548    0.09564    0.33697    1.000
    C394     C        0.89180    0.10918    0.34997    1.000
    H266     H        0.87943    0.10927    0.44217    1.000
    C395     C        0.87577    0.12259    0.23167    1.000
    H267     H        0.85283    0.13197    0.24377    1.000
    C396     C        0.94383    0.08271    0.46927    1.000
    H268     H        0.91923    0.06997    0.54317    1.000
    H269     H        0.95233    0.05887    0.44367    1.000
    H270     H        0.97163    0.11087    0.50617    1.000
    Co9      Co       0.83333    0.16667    0.66667    1.000
