# CIF file generated by openbabel 3.1.0, see https://openbabel.org
data_I
_chemical_name_common 'image0'
_cell_length_a 39.916
_cell_length_b 39.916
_cell_length_c 18.033
_cell_angle_alpha 90
_cell_angle_beta 90
_cell_angle_gamma 90
_space_group_name_H-M_alt 'P 1'
_space_group_name_Hall 'P 1'
loop_
    _symmetry_equiv_pos_as_xyz
    x,y,z
loop_
    _atom_site_label
    _atom_site_type_symbol
    _atom_site_fract_x
    _atom_site_fract_y
    _atom_site_fract_z
    _atom_site_occupancy
    Mn1      Mn       0.07400    0.04248    0.16839    1.000
    O1       O        0.09674    0.01346    0.23150    1.000
    O2       O        0.99743    0.02002    0.31512    1.000
    O3       O        0.04381    0.06994    0.10984    1.000
    N1       N        0.03260    0.03447    0.22091    1.000
    N2       N        0.00395    0.05085    0.19056    1.000
    C1       C        0.08600    0.99897    0.29290    1.000
    C2       C        0.11017    0.97940    0.33100    1.000
    H1       H        0.13150    0.97520    0.30950    1.000
    C3       C        0.10207    0.96660    0.40050    1.000
    H2       H        0.11810    0.95340    0.42640    1.000
    C4       C        0.07091    0.97260    0.43270    1.000
    H3       H        0.06650    0.96560    0.48210    1.000
    C5       C        0.04691    0.98860    0.39230    1.000
    H4       H        0.02480    0.99010    0.41170    1.000
    C6       C        0.05391    0.00293    0.32320    1.000
    C7       C        0.02649    0.01975    0.28500    1.000
    C8       C        0.01299    0.06851    0.13348    1.000
    C9       C        0.98718    0.08906    0.09360    1.000
    H5       H        0.97780    0.07600    0.05250    1.000
    H6       H        0.99760    0.10950    0.07420    1.000
    H7       H        0.96920    0.09510    0.12810    1.000
    Mn2      Mn       0.95849    0.03259    0.25308    1.000
    O4       O        0.95001    0.07445    0.29441    1.000
    O5       O        0.88537    0.06636    0.10837    1.000
    O6       O        0.96052    0.98995    0.20217    1.000
    N3       N        0.92254    0.03879    0.18194    1.000
    N4       N        0.91711    0.01132    0.13487    1.000
    N5       N        0.92662    0.00700    0.34050    1.000
    C10      C        0.92732    0.09765    0.27640    1.000
    C11      C        0.92529    0.12566    0.32220    1.000
    H8       H        0.93970    0.12740    0.36380    1.000
    C12      C        0.90236    0.15111    0.30770    1.000
    H9       H        0.90110    0.16990    0.33990    1.000
    C13      C        0.88139    0.14917    0.24680    1.000
    H10      H        0.86620    0.16680    0.23620    1.000
    C14      C        0.88285    0.12138    0.20170    1.000
    H11      H        0.86820    0.11980    0.16040    1.000
    C15      C        0.90559    0.09521    0.21550    1.000
    C16      C        0.90436    0.06563    0.16595    1.000
    C17      C        0.93773    0.98711    0.15110    1.000
    C18      C        0.93497    0.95490    0.11050    1.000
    H12      H        0.95000    0.95520    0.06760    1.000
    H13      H        0.91180    0.95180    0.09360    1.000
    H14      H        0.94120    0.93640    0.14350    1.000
    C19      C        0.93828    0.97770    0.37110    1.000
    H15      H        0.95990    0.96970    0.35830    1.000
    C20      C        0.91860    0.95960    0.42070    1.000
    H16      H        0.92670    0.93930    0.44160    1.000
    C21      C        0.89622    0.01220    0.35220    1.000
    H17      H        0.88620    0.03030    0.32630    1.000
    C22      C        0.87583    0.99400    0.39960    1.000
    H18      H        0.85260    0.99910    0.40130    1.000
    C23      C        0.88661    0.97160    0.43950    1.000
    C24      C        0.86440    0.95450    0.49570    1.000
    H19      H        0.84920    0.97150    0.51720    1.000
    H20      H        0.85030    0.93800    0.46920    1.000
    Mn3      Mn       0.11226    0.97175    0.96403    1.000
    O7       O        0.15173    0.99173    0.93470    1.000
    O8       O        0.11484    0.05224    0.11160    1.000
    O9       O        0.06982    0.95727    0.00442    1.000
    N6       N        0.10487    0.00677    0.03733    1.000
    N7       N        0.07386    0.00434    0.07540    1.000
    N8       N        0.81190    0.88955    0.70531    1.000
    C25      C        0.16840    0.01690    0.96570    1.000
    C26      C        0.20054    0.02398    0.93700    1.000
    H21      H        0.20890    0.01080    0.89730    1.000
    C27      C        0.22010    0.04951    0.96520    1.000
    H22      H        0.24150    0.05400    0.94420    1.000
    C28      C        0.20853    0.06887    0.02480    1.000
    H23      H        0.22190    0.08630    0.04480    1.000
    C29      C        0.17787    0.06222    0.05310    1.000
    H24      H        0.17010    0.07520    0.09370    1.000
    C30      C        0.15726    0.03697    0.02500    1.000
    C31      C        0.12387    0.03210    0.05990    1.000
    C32      C        0.05782    0.97802    0.05340    1.000
    C33      C        0.02339    0.97114    0.08250    1.000
    H25      H        0.02400    0.95130    0.11440    1.000
    H26      H        0.01560    0.99050    0.11130    1.000
    H27      H        0.00810    0.96720    0.04090    1.000
    C34      C        0.82641    0.91848    0.72250    1.000
    H28      H        0.82140    0.92830    0.76930    1.000
    C35      C        0.84828    0.93506    0.67650    1.000
    H29      H        0.85780    0.95580    0.69110    1.000
    C36      C        0.81865    0.87714    0.63820    1.000
    H30      H        0.80780    0.85700    0.62360    1.000
    C37      C        0.84060    0.89190    0.58840    1.000
    H31      H        0.84470    0.88200    0.54140    1.000
    C38      C        0.85621    0.92102    0.60810    1.000
    C39      C        0.88060    0.93780    0.55450    1.000
    H32      H        0.89450    0.95420    0.58220    1.000
    H33      H        0.89590    0.92060    0.53380    1.000
    Mn4      Mn       0.57400    0.54248    0.66839    1.000
    O10      O        0.59674    0.51346    0.73150    1.000
    O11      O        0.49743    0.52002    0.81512    1.000
    O12      O        0.54381    0.56994    0.60984    1.000
    N9       N        0.53260    0.53447    0.72091    1.000
    N10      N        0.50395    0.55085    0.69056    1.000
    C40      C        0.58600    0.49897    0.79290    1.000
    C41      C        0.61017    0.47940    0.83100    1.000
    H34      H        0.63150    0.47520    0.80950    1.000
    C42      C        0.60207    0.46660    0.90050    1.000
    H35      H        0.61810    0.45340    0.92640    1.000
    C43      C        0.57091    0.47260    0.93270    1.000
    H36      H        0.56650    0.46560    0.98210    1.000
    C44      C        0.54691    0.48860    0.89230    1.000
    H37      H        0.52480    0.49010    0.91170    1.000
    C45      C        0.55391    0.50293    0.82320    1.000
    C46      C        0.52649    0.51975    0.78500    1.000
    C47      C        0.51299    0.56851    0.63348    1.000
    C48      C        0.48718    0.58906    0.59360    1.000
    H38      H        0.47780    0.57600    0.55250    1.000
    H39      H        0.49760    0.60950    0.57420    1.000
    H40      H        0.46920    0.59510    0.62810    1.000
    Mn5      Mn       0.45849    0.53259    0.75308    1.000
    O13      O        0.45001    0.57445    0.79441    1.000
    O14      O        0.38537    0.56636    0.60837    1.000
    O15      O        0.46052    0.48995    0.70217    1.000
    N11      N        0.42254    0.53879    0.68194    1.000
    N12      N        0.41711    0.51132    0.63487    1.000
    N13      N        0.42662    0.50700    0.84050    1.000
    C49      C        0.42732    0.59765    0.77640    1.000
    C50      C        0.42529    0.62566    0.82220    1.000
    H41      H        0.43970    0.62740    0.86380    1.000
    C51      C        0.40236    0.65111    0.80770    1.000
    H42      H        0.40110    0.66990    0.83990    1.000
    C52      C        0.38139    0.64917    0.74680    1.000
    H43      H        0.36620    0.66680    0.73620    1.000
    C53      C        0.38285    0.62138    0.70170    1.000
    H44      H        0.36820    0.61980    0.66040    1.000
    C54      C        0.40559    0.59521    0.71550    1.000
    C55      C        0.40436    0.56563    0.66595    1.000
    C56      C        0.43773    0.48711    0.65110    1.000
    C57      C        0.43497    0.45490    0.61050    1.000
    H45      H        0.45000    0.45520    0.56760    1.000
    H46      H        0.41180    0.45180    0.59360    1.000
    H47      H        0.44120    0.43640    0.64350    1.000
    C58      C        0.43828    0.47770    0.87110    1.000
    H48      H        0.45990    0.46970    0.85830    1.000
    C59      C        0.41860    0.45960    0.92070    1.000
    H49      H        0.42670    0.43930    0.94160    1.000
    C60      C        0.39622    0.51220    0.85220    1.000
    H50      H        0.38620    0.53030    0.82630    1.000
    C61      C        0.37583    0.49400    0.89960    1.000
    H51      H        0.35260    0.49910    0.90130    1.000
    C62      C        0.38661    0.47160    0.93950    1.000
    C63      C        0.36440    0.45450    0.99570    1.000
    H52      H        0.34920    0.47150    0.01720    1.000
    H53      H        0.35030    0.43800    0.96920    1.000
    Mn6      Mn       0.61226    0.47175    0.46403    1.000
    O16      O        0.65173    0.49173    0.43470    1.000
    O17      O        0.61484    0.55224    0.61160    1.000
    O18      O        0.56982    0.45727    0.50442    1.000
    N14      N        0.60487    0.50677    0.53733    1.000
    N15      N        0.57386    0.50434    0.57540    1.000
    N16      N        0.31190    0.38955    0.20531    1.000
    C64      C        0.66840    0.51690    0.46570    1.000
    C65      C        0.70054    0.52398    0.43700    1.000
    H54      H        0.70890    0.51080    0.39730    1.000
    C66      C        0.72010    0.54951    0.46520    1.000
    H55      H        0.74150    0.55400    0.44420    1.000
    C67      C        0.70853    0.56887    0.52480    1.000
    H56      H        0.72190    0.58630    0.54480    1.000
    C68      C        0.67787    0.56222    0.55310    1.000
    H57      H        0.67010    0.57520    0.59370    1.000
    C69      C        0.65726    0.53697    0.52500    1.000
    C70      C        0.62387    0.53210    0.55990    1.000
    C71      C        0.55782    0.47802    0.55340    1.000
    C72      C        0.52339    0.47114    0.58250    1.000
    H58      H        0.52400    0.45130    0.61440    1.000
    H59      H        0.51560    0.49050    0.61130    1.000
    H60      H        0.50810    0.46720    0.54090    1.000
    C73      C        0.32641    0.41848    0.22250    1.000
    H61      H        0.32140    0.42830    0.26930    1.000
    C74      C        0.34828    0.43506    0.17650    1.000
    H62      H        0.35780    0.45580    0.19110    1.000
    C75      C        0.31865    0.37714    0.13820    1.000
    H63      H        0.30780    0.35700    0.12360    1.000
    C76      C        0.34060    0.39190    0.08840    1.000
    H64      H        0.34470    0.38200    0.04140    1.000
    C77      C        0.35621    0.42102    0.10810    1.000
    C78      C        0.38060    0.43780    0.05450    1.000
    H65      H        0.39450    0.45420    0.08220    1.000
    H66      H        0.39590    0.42060    0.03380    1.000
    Mn7      Mn       0.42600    0.95752    0.66839    1.000
    O19      O        0.40326    0.98654    0.73150    1.000
    O20      O        0.50257    0.97998    0.81512    1.000
    O21      O        0.45619    0.93006    0.60984    1.000
    N17      N        0.46740    0.96553    0.72091    1.000
    N18      N        0.49605    0.94915    0.69056    1.000
    C79      C        0.41400    0.00103    0.79290    1.000
    C80      C        0.38983    0.02060    0.83100    1.000
    H67      H        0.36850    0.02480    0.80950    1.000
    C81      C        0.39793    0.03340    0.90050    1.000
    H68      H        0.38190    0.04660    0.92640    1.000
    C82      C        0.42909    0.02740    0.93270    1.000
    H69      H        0.43350    0.03440    0.98210    1.000
    C83      C        0.45309    0.01140    0.89230    1.000
    H70      H        0.47520    0.00990    0.91170    1.000
    C84      C        0.44609    0.99707    0.82320    1.000
    C85      C        0.47351    0.98025    0.78500    1.000
    C86      C        0.48701    0.93149    0.63348    1.000
    C87      C        0.51282    0.91094    0.59360    1.000
    H71      H        0.52220    0.92400    0.55250    1.000
    H72      H        0.50240    0.89050    0.57420    1.000
    H73      H        0.53080    0.90490    0.62810    1.000
    Mn8      Mn       0.54151    0.96741    0.75308    1.000
    O22      O        0.54999    0.92555    0.79441    1.000
    O23      O        0.61463    0.93364    0.60837    1.000
    O24      O        0.53948    0.01005    0.70217    1.000
    N19      N        0.57746    0.96121    0.68194    1.000
    N20      N        0.58289    0.98868    0.63487    1.000
    N21      N        0.57338    0.99300    0.84050    1.000
    C88      C        0.57268    0.90235    0.77640    1.000
    C89      C        0.57471    0.87434    0.82220    1.000
    H74      H        0.56030    0.87260    0.86380    1.000
    C90      C        0.59764    0.84889    0.80770    1.000
    H75      H        0.59890    0.83010    0.83990    1.000
    C91      C        0.61861    0.85083    0.74680    1.000
    H76      H        0.63380    0.83320    0.73620    1.000
    C92      C        0.61715    0.87862    0.70170    1.000
    H77      H        0.63180    0.88020    0.66040    1.000
    C93      C        0.59441    0.90479    0.71550    1.000
    C94      C        0.59564    0.93437    0.66595    1.000
    C95      C        0.56227    0.01289    0.65110    1.000
    C96      C        0.56503    0.04510    0.61050    1.000
    H78      H        0.55000    0.04480    0.56760    1.000
    H79      H        0.58820    0.04820    0.59360    1.000
    H80      H        0.55880    0.06360    0.64350    1.000
    C97      C        0.56172    0.02230    0.87110    1.000
    H81      H        0.54010    0.03030    0.85830    1.000
    C98      C        0.58140    0.04040    0.92070    1.000
    H82      H        0.57330    0.06070    0.94160    1.000
    C99      C        0.60378    0.98780    0.85220    1.000
    H83      H        0.61380    0.96970    0.82630    1.000
    C100     C        0.62417    0.00600    0.89960    1.000
    H84      H        0.64740    0.00090    0.90130    1.000
    C101     C        0.61339    0.02840    0.93950    1.000
    C102     C        0.63560    0.04550    0.99570    1.000
    H85      H        0.65080    0.02850    0.01720    1.000
    H86      H        0.64970    0.06200    0.96920    1.000
    Mn9      Mn       0.38774    0.02825    0.46403    1.000
    O25      O        0.34827    0.00827    0.43470    1.000
    O26      O        0.38516    0.94776    0.61160    1.000
    O27      O        0.43018    0.04273    0.50442    1.000
    N22      N        0.39513    0.99323    0.53733    1.000
    N23      N        0.42614    0.99566    0.57540    1.000
    N24      N        0.68810    0.11045    0.20531    1.000
    C103     C        0.33160    0.98310    0.46570    1.000
    C104     C        0.29946    0.97602    0.43700    1.000
    H87      H        0.29110    0.98920    0.39730    1.000
    C105     C        0.27990    0.95049    0.46520    1.000
    H88      H        0.25850    0.94600    0.44420    1.000
    C106     C        0.29147    0.93113    0.52480    1.000
    H89      H        0.27810    0.91370    0.54480    1.000
    C107     C        0.32213    0.93778    0.55310    1.000
    H90      H        0.32990    0.92480    0.59370    1.000
    C108     C        0.34274    0.96303    0.52500    1.000
    C109     C        0.37613    0.96790    0.55990    1.000
    C110     C        0.44218    0.02198    0.55340    1.000
    C111     C        0.47661    0.02886    0.58250    1.000
    H91      H        0.47600    0.04870    0.61440    1.000
    H92      H        0.48440    0.00950    0.61130    1.000
    H93      H        0.49190    0.03280    0.54090    1.000
    C112     C        0.67359    0.08152    0.22250    1.000
    H94      H        0.67860    0.07170    0.26930    1.000
    C113     C        0.65172    0.06494    0.17650    1.000
    H95      H        0.64220    0.04420    0.19110    1.000
    C114     C        0.68135    0.12286    0.13820    1.000
    H96      H        0.69220    0.14300    0.12360    1.000
    C115     C        0.65940    0.10810    0.08840    1.000
    H97      H        0.65530    0.11800    0.04140    1.000
    C116     C        0.64379    0.07898    0.10810    1.000
    C117     C        0.61940    0.06220    0.05450    1.000
    H98      H        0.60550    0.04580    0.08220    1.000
    H99      H        0.60410    0.07940    0.03380    1.000
    Mn10     Mn       0.92600    0.45752    0.16839    1.000
    O28      O        0.90326    0.48654    0.23150    1.000
    O29      O        0.00257    0.47998    0.31512    1.000
    O30      O        0.95619    0.43006    0.10984    1.000
    N25      N        0.96740    0.46553    0.22091    1.000
    N26      N        0.99605    0.44915    0.19056    1.000
    C118     C        0.91400    0.50103    0.29290    1.000
    C119     C        0.88983    0.52060    0.33100    1.000
    H100     H        0.86850    0.52480    0.30950    1.000
    C120     C        0.89793    0.53340    0.40050    1.000
    H101     H        0.88190    0.54660    0.42640    1.000
    C121     C        0.92909    0.52740    0.43270    1.000
    H102     H        0.93350    0.53440    0.48210    1.000
    C122     C        0.95309    0.51140    0.39230    1.000
    H103     H        0.97520    0.50990    0.41170    1.000
    C123     C        0.94609    0.49707    0.32320    1.000
    C124     C        0.97351    0.48025    0.28500    1.000
    C125     C        0.98701    0.43149    0.13348    1.000
    C126     C        0.01282    0.41094    0.09360    1.000
    H104     H        0.02220    0.42400    0.05250    1.000
    H105     H        0.00240    0.39050    0.07420    1.000
    H106     H        0.03080    0.40490    0.12810    1.000
    Mn11     Mn       0.04151    0.46741    0.25308    1.000
    O31      O        0.04999    0.42555    0.29441    1.000
    O32      O        0.11463    0.43364    0.10837    1.000
    O33      O        0.03948    0.51005    0.20217    1.000
    N27      N        0.07746    0.46121    0.18194    1.000
    N28      N        0.08289    0.48868    0.13487    1.000
    N29      N        0.07338    0.49300    0.34050    1.000
    C127     C        0.07268    0.40235    0.27640    1.000
    C128     C        0.07471    0.37434    0.32220    1.000
    H107     H        0.06030    0.37260    0.36380    1.000
    C129     C        0.09764    0.34889    0.30770    1.000
    H108     H        0.09890    0.33010    0.33990    1.000
    C130     C        0.11861    0.35083    0.24680    1.000
    H109     H        0.13380    0.33320    0.23620    1.000
    C131     C        0.11715    0.37862    0.20170    1.000
    H110     H        0.13180    0.38020    0.16040    1.000
    C132     C        0.09441    0.40479    0.21550    1.000
    C133     C        0.09564    0.43437    0.16595    1.000
    C134     C        0.06227    0.51289    0.15110    1.000
    C135     C        0.06503    0.54510    0.11050    1.000
    H111     H        0.05000    0.54480    0.06760    1.000
    H112     H        0.08820    0.54820    0.09360    1.000
    H113     H        0.05880    0.56360    0.14350    1.000
    C136     C        0.06172    0.52230    0.37110    1.000
    H114     H        0.04010    0.53030    0.35830    1.000
    C137     C        0.08140    0.54040    0.42070    1.000
    H115     H        0.07330    0.56070    0.44160    1.000
    C138     C        0.10378    0.48780    0.35220    1.000
    H116     H        0.11380    0.46970    0.32630    1.000
    C139     C        0.12417    0.50600    0.39960    1.000
    H117     H        0.14740    0.50090    0.40130    1.000
    C140     C        0.11339    0.52840    0.43950    1.000
    C141     C        0.13560    0.54550    0.49570    1.000
    H118     H        0.15080    0.52850    0.51720    1.000
    H119     H        0.14970    0.56200    0.46920    1.000
    Mn12     Mn       0.88774    0.52825    0.96403    1.000
    O34      O        0.84827    0.50827    0.93470    1.000
    O35      O        0.88516    0.44776    0.11160    1.000
    O36      O        0.93018    0.54273    0.00442    1.000
    N30      N        0.89513    0.49323    0.03733    1.000
    N31      N        0.92614    0.49566    0.07540    1.000
    N32      N        0.18810    0.61045    0.70531    1.000
    C142     C        0.83160    0.48310    0.96570    1.000
    C143     C        0.79946    0.47602    0.93700    1.000
    H120     H        0.79110    0.48920    0.89730    1.000
    C144     C        0.77990    0.45049    0.96520    1.000
    H121     H        0.75850    0.44600    0.94420    1.000
    C145     C        0.79147    0.43113    0.02480    1.000
    H122     H        0.77810    0.41370    0.04480    1.000
    C146     C        0.82213    0.43778    0.05310    1.000
    H123     H        0.82990    0.42480    0.09370    1.000
    C147     C        0.84274    0.46303    0.02500    1.000
    C148     C        0.87613    0.46790    0.05990    1.000
    C149     C        0.94218    0.52198    0.05340    1.000
    C150     C        0.97661    0.52886    0.08250    1.000
    H124     H        0.97600    0.54870    0.11440    1.000
    H125     H        0.98440    0.50950    0.11130    1.000
    H126     H        0.99190    0.53280    0.04090    1.000
    C151     C        0.17359    0.58152    0.72250    1.000
    H127     H        0.17860    0.57170    0.76930    1.000
    C152     C        0.15172    0.56494    0.67650    1.000
    H128     H        0.14220    0.54420    0.69110    1.000
    C153     C        0.18135    0.62286    0.63820    1.000
    H129     H        0.19220    0.64300    0.62360    1.000
    C154     C        0.15940    0.60810    0.58840    1.000
    H130     H        0.15530    0.61800    0.54140    1.000
    C155     C        0.14379    0.57898    0.60810    1.000
    C156     C        0.11940    0.56220    0.55450    1.000
    H131     H        0.10550    0.54580    0.58220    1.000
    H132     H        0.10410    0.57940    0.53380    1.000
    Mn13     Mn       0.70752    0.32400    0.41839    1.000
    O37      O        0.73654    0.34674    0.48150    1.000
    O38      O        0.72998    0.24743    0.56512    1.000
    O39      O        0.68006    0.29381    0.35984    1.000
    N33      N        0.71553    0.28260    0.47091    1.000
    N34      N        0.69915    0.25395    0.44056    1.000
    C157     C        0.75103    0.33600    0.54290    1.000
    C158     C        0.77060    0.36017    0.58100    1.000
    H133     H        0.77480    0.38150    0.55950    1.000
    C159     C        0.78340    0.35207    0.65050    1.000
    H134     H        0.79660    0.36810    0.67640    1.000
    C160     C        0.77740    0.32091    0.68270    1.000
    H135     H        0.78440    0.31650    0.73210    1.000
    C161     C        0.76140    0.29691    0.64230    1.000
    H136     H        0.75990    0.27480    0.66170    1.000
    C162     C        0.74707    0.30391    0.57320    1.000
    C163     C        0.73025    0.27649    0.53500    1.000
    C164     C        0.68149    0.26299    0.38348    1.000
    C165     C        0.66094    0.23718    0.34360    1.000
    H137     H        0.67400    0.22780    0.30250    1.000
    H138     H        0.64050    0.24760    0.32420    1.000
    H139     H        0.65490    0.21920    0.37810    1.000
    Mn14     Mn       0.71741    0.20849    0.50308    1.000
    O40      O        0.67555    0.20001    0.54441    1.000
    O41      O        0.68364    0.13537    0.35837    1.000
    O42      O        0.76005    0.21052    0.45217    1.000
    N35      N        0.71121    0.17254    0.43194    1.000
    N36      N        0.73868    0.16711    0.38487    1.000
    N37      N        0.74300    0.17662    0.59050    1.000
    C166     C        0.65235    0.17732    0.52640    1.000
    C167     C        0.62434    0.17529    0.57220    1.000
    H140     H        0.62260    0.18970    0.61380    1.000
    C168     C        0.59889    0.15236    0.55770    1.000
    H141     H        0.58010    0.15110    0.58990    1.000
    C169     C        0.60083    0.13139    0.49680    1.000
    H142     H        0.58320    0.11620    0.48620    1.000
    C170     C        0.62862    0.13285    0.45170    1.000
    H143     H        0.63020    0.11820    0.41040    1.000
    C171     C        0.65479    0.15559    0.46550    1.000
    C172     C        0.68437    0.15436    0.41595    1.000
    C173     C        0.76289    0.18773    0.40110    1.000
    C174     C        0.79510    0.18497    0.36050    1.000
    H144     H        0.79480    0.20000    0.31760    1.000
    H145     H        0.79820    0.16180    0.34360    1.000
    H146     H        0.81360    0.19120    0.39350    1.000
    C175     C        0.77230    0.18828    0.62110    1.000
    H147     H        0.78030    0.20990    0.60830    1.000
    C176     C        0.79040    0.16860    0.67070    1.000
    H148     H        0.81070    0.17670    0.69160    1.000
    C177     C        0.73780    0.14622    0.60220    1.000
    H149     H        0.71970    0.13620    0.57630    1.000
    C178     C        0.75600    0.12583    0.64960    1.000
    H150     H        0.75090    0.10260    0.65130    1.000
    C179     C        0.77840    0.13661    0.68950    1.000
    C180     C        0.79550    0.11440    0.74570    1.000
    H151     H        0.77850    0.09920    0.76720    1.000
    H152     H        0.81200    0.10030    0.71920    1.000
    Mn15     Mn       0.77825    0.36226    0.21403    1.000
    O43      O        0.75827    0.40173    0.18470    1.000
    O44      O        0.69776    0.36484    0.36160    1.000
    O45      O        0.79273    0.31982    0.25442    1.000
    N38      N        0.74323    0.35487    0.28733    1.000
    N39      N        0.74566    0.32386    0.32540    1.000
    N40      N        0.86045    0.06190    0.95531    1.000
    C181     C        0.73310    0.41840    0.21570    1.000
    C182     C        0.72602    0.45054    0.18700    1.000
    H153     H        0.73920    0.45890    0.14730    1.000
    C183     C        0.70049    0.47010    0.21520    1.000
    H154     H        0.69600    0.49150    0.19420    1.000
    C184     C        0.68113    0.45853    0.27480    1.000
    H155     H        0.66370    0.47190    0.29480    1.000
    C185     C        0.68778    0.42787    0.30310    1.000
    H156     H        0.67480    0.42010    0.34370    1.000
    C186     C        0.71303    0.40726    0.27500    1.000
    C187     C        0.71790    0.37387    0.30990    1.000
    C188     C        0.77198    0.30782    0.30340    1.000
    C189     C        0.77886    0.27339    0.33250    1.000
    H157     H        0.79870    0.27400    0.36440    1.000
    H158     H        0.75950    0.26560    0.36130    1.000
    H159     H        0.78280    0.25810    0.29090    1.000
    C190     C        0.83152    0.07641    0.97250    1.000
    H160     H        0.82170    0.07140    0.01930    1.000
    C191     C        0.81494    0.09828    0.92650    1.000
    H161     H        0.79420    0.10780    0.94110    1.000
    C192     C        0.87286    0.06865    0.88820    1.000
    H162     H        0.89300    0.05780    0.87360    1.000
    C193     C        0.85810    0.09060    0.83840    1.000
    H163     H        0.86800    0.09470    0.79140    1.000
    C194     C        0.82898    0.10621    0.85810    1.000
    C195     C        0.81220    0.13060    0.80450    1.000
    H164     H        0.79580    0.14450    0.83220    1.000
    H165     H        0.82940    0.14590    0.78380    1.000
    Mn16     Mn       0.20752    0.82400    0.91839    1.000
    O46      O        0.23654    0.84674    0.98150    1.000
    O47      O        0.22998    0.74743    0.06512    1.000
    O48      O        0.18006    0.79381    0.85984    1.000
    N41      N        0.21553    0.78260    0.97091    1.000
    N42      N        0.19915    0.75395    0.94056    1.000
    C196     C        0.25103    0.83600    0.04290    1.000
    C197     C        0.27060    0.86017    0.08100    1.000
    H166     H        0.27480    0.88150    0.05950    1.000
    C198     C        0.28340    0.85207    0.15050    1.000
    H167     H        0.29660    0.86810    0.17640    1.000
    C199     C        0.27740    0.82091    0.18270    1.000
    H168     H        0.28440    0.81650    0.23210    1.000
    C200     C        0.26140    0.79691    0.14230    1.000
    H169     H        0.25990    0.77480    0.16170    1.000
    C201     C        0.24707    0.80391    0.07320    1.000
    C202     C        0.23025    0.77649    0.03500    1.000
    C203     C        0.18149    0.76299    0.88348    1.000
    C204     C        0.16094    0.73718    0.84360    1.000
    H170     H        0.17400    0.72780    0.80250    1.000
    H171     H        0.14050    0.74760    0.82420    1.000
    H172     H        0.15490    0.71920    0.87810    1.000
    Mn17     Mn       0.21741    0.70849    0.00308    1.000
    O49      O        0.17555    0.70001    0.04441    1.000
    O50      O        0.18364    0.63537    0.85837    1.000
    O51      O        0.26005    0.71052    0.95217    1.000
    N43      N        0.21121    0.67254    0.93194    1.000
    N44      N        0.23868    0.66711    0.88487    1.000
    N45      N        0.24300    0.67662    0.09050    1.000
    C205     C        0.15235    0.67732    0.02640    1.000
    C206     C        0.12434    0.67529    0.07220    1.000
    H173     H        0.12260    0.68970    0.11380    1.000
    C207     C        0.09889    0.65236    0.05770    1.000
    H174     H        0.08010    0.65110    0.08990    1.000
    C208     C        0.10083    0.63139    0.99680    1.000
    H175     H        0.08320    0.61620    0.98620    1.000
    C209     C        0.12862    0.63285    0.95170    1.000
    H176     H        0.13020    0.61820    0.91040    1.000
    C210     C        0.15479    0.65559    0.96550    1.000
    C211     C        0.18437    0.65436    0.91595    1.000
    C212     C        0.26289    0.68773    0.90110    1.000
    C213     C        0.29510    0.68497    0.86050    1.000
    H177     H        0.29480    0.70000    0.81760    1.000
    H178     H        0.29820    0.66180    0.84360    1.000
    H179     H        0.31360    0.69120    0.89350    1.000
    C214     C        0.27230    0.68828    0.12110    1.000
    H180     H        0.28030    0.70990    0.10830    1.000
    C215     C        0.29040    0.66860    0.17070    1.000
    H181     H        0.31070    0.67670    0.19160    1.000
    C216     C        0.23780    0.64622    0.10220    1.000
    H182     H        0.21970    0.63620    0.07630    1.000
    C217     C        0.25600    0.62583    0.14960    1.000
    H183     H        0.25090    0.60260    0.15130    1.000
    C218     C        0.27840    0.63661    0.18950    1.000
    C219     C        0.29550    0.61440    0.24570    1.000
    H184     H        0.27850    0.59920    0.26720    1.000
    H185     H        0.31200    0.60030    0.21920    1.000
    Mn18     Mn       0.27825    0.86226    0.71403    1.000
    O52      O        0.25827    0.90173    0.68470    1.000
    O53      O        0.19776    0.86484    0.86160    1.000
    O54      O        0.29273    0.81982    0.75442    1.000
    N46      N        0.24323    0.85487    0.78733    1.000
    N47      N        0.24566    0.82386    0.82540    1.000
    N48      N        0.36045    0.56190    0.45531    1.000
    C220     C        0.23310    0.91840    0.71570    1.000
    C221     C        0.22602    0.95054    0.68700    1.000
    H186     H        0.23920    0.95890    0.64730    1.000
    C222     C        0.20049    0.97010    0.71520    1.000
    H187     H        0.19600    0.99150    0.69420    1.000
    C223     C        0.18113    0.95853    0.77480    1.000
    H188     H        0.16370    0.97190    0.79480    1.000
    C224     C        0.18778    0.92787    0.80310    1.000
    H189     H        0.17480    0.92010    0.84370    1.000
    C225     C        0.21303    0.90726    0.77500    1.000
    C226     C        0.21790    0.87387    0.80990    1.000
    C227     C        0.27198    0.80782    0.80340    1.000
    C228     C        0.27886    0.77339    0.83250    1.000
    H190     H        0.29870    0.77400    0.86440    1.000
    H191     H        0.25950    0.76560    0.86130    1.000
    H192     H        0.28280    0.75810    0.79090    1.000
    C229     C        0.33152    0.57641    0.47250    1.000
    H193     H        0.32170    0.57140    0.51930    1.000
    C230     C        0.31494    0.59828    0.42650    1.000
    H194     H        0.29420    0.60780    0.44110    1.000
    C231     C        0.37286    0.56865    0.38820    1.000
    H195     H        0.39300    0.55780    0.37360    1.000
    C232     C        0.35810    0.59060    0.33840    1.000
    H196     H        0.36800    0.59470    0.29140    1.000
    C233     C        0.32898    0.60621    0.35810    1.000
    C234     C        0.31220    0.63060    0.30450    1.000
    H197     H        0.29580    0.64450    0.33220    1.000
    H198     H        0.32940    0.64590    0.28380    1.000
    Mn19     Mn       0.79248    0.67600    0.91839    1.000
    O55      O        0.76346    0.65326    0.98150    1.000
    O56      O        0.77002    0.75257    0.06512    1.000
    O57      O        0.81994    0.70619    0.85984    1.000
    N49      N        0.78447    0.71740    0.97091    1.000
    N50      N        0.80085    0.74605    0.94056    1.000
    C235     C        0.74897    0.66400    0.04290    1.000
    C236     C        0.72940    0.63983    0.08100    1.000
    H199     H        0.72520    0.61850    0.05950    1.000
    C237     C        0.71660    0.64793    0.15050    1.000
    H200     H        0.70340    0.63190    0.17640    1.000
    C238     C        0.72260    0.67909    0.18270    1.000
    H201     H        0.71560    0.68350    0.23210    1.000
    C239     C        0.73860    0.70309    0.14230    1.000
    H202     H        0.74010    0.72520    0.16170    1.000
    C240     C        0.75293    0.69609    0.07320    1.000
    C241     C        0.76975    0.72351    0.03500    1.000
    C242     C        0.81851    0.73701    0.88348    1.000
    C243     C        0.83906    0.76282    0.84360    1.000
    H203     H        0.82600    0.77220    0.80250    1.000
    H204     H        0.85950    0.75240    0.82420    1.000
    H205     H        0.84510    0.78080    0.87810    1.000
    Mn20     Mn       0.78259    0.79151    0.00308    1.000
    O58      O        0.82445    0.79999    0.04441    1.000
    O59      O        0.81636    0.86463    0.85837    1.000
    O60      O        0.73995    0.78948    0.95217    1.000
    N51      N        0.78879    0.82746    0.93194    1.000
    N52      N        0.76132    0.83289    0.88487    1.000
    N53      N        0.75700    0.82338    0.09050    1.000
    C244     C        0.84765    0.82268    0.02640    1.000
    C245     C        0.87566    0.82471    0.07220    1.000
    H206     H        0.87740    0.81030    0.11380    1.000
    C246     C        0.90111    0.84764    0.05770    1.000
    H207     H        0.91990    0.84890    0.08990    1.000
    C247     C        0.89917    0.86861    0.99680    1.000
    H208     H        0.91680    0.88380    0.98620    1.000
    C248     C        0.87138    0.86715    0.95170    1.000
    H209     H        0.86980    0.88180    0.91040    1.000
    C249     C        0.84521    0.84441    0.96550    1.000
    C250     C        0.81563    0.84564    0.91595    1.000
    C251     C        0.73711    0.81227    0.90110    1.000
    C252     C        0.70490    0.81503    0.86050    1.000
    H210     H        0.70520    0.80000    0.81760    1.000
    H211     H        0.70180    0.83820    0.84360    1.000
    H212     H        0.68640    0.80880    0.89350    1.000
    C253     C        0.72770    0.81172    0.12110    1.000
    H213     H        0.71970    0.79010    0.10830    1.000
    C254     C        0.70960    0.83140    0.17070    1.000
    H214     H        0.68930    0.82330    0.19160    1.000
    C255     C        0.76220    0.85378    0.10220    1.000
    H215     H        0.78030    0.86380    0.07630    1.000
    C256     C        0.74400    0.87417    0.14960    1.000
    H216     H        0.74910    0.89740    0.15130    1.000
    C257     C        0.72160    0.86339    0.18950    1.000
    C258     C        0.70450    0.88560    0.24570    1.000
    H217     H        0.72150    0.90080    0.26720    1.000
    H218     H        0.68800    0.89970    0.21920    1.000
    Mn21     Mn       0.72175    0.63774    0.71403    1.000
    O61      O        0.74173    0.59827    0.68470    1.000
    O62      O        0.80224    0.63516    0.86160    1.000
    O63      O        0.70727    0.68018    0.75442    1.000
    N54      N        0.75677    0.64513    0.78733    1.000
    N55      N        0.75434    0.67614    0.82540    1.000
    N56      N        0.63955    0.93810    0.45531    1.000
    C259     C        0.76690    0.58160    0.71570    1.000
    C260     C        0.77398    0.54946    0.68700    1.000
    H219     H        0.76080    0.54110    0.64730    1.000
    C261     C        0.79951    0.52990    0.71520    1.000
    H220     H        0.80400    0.50850    0.69420    1.000
    C262     C        0.81887    0.54147    0.77480    1.000
    H221     H        0.83630    0.52810    0.79480    1.000
    C263     C        0.81222    0.57213    0.80310    1.000
    H222     H        0.82520    0.57990    0.84370    1.000
    C264     C        0.78697    0.59274    0.77500    1.000
    C265     C        0.78210    0.62613    0.80990    1.000
    C266     C        0.72802    0.69218    0.80340    1.000
    C267     C        0.72114    0.72661    0.83250    1.000
    H223     H        0.70130    0.72600    0.86440    1.000
    H224     H        0.74050    0.73440    0.86130    1.000
    H225     H        0.71720    0.74190    0.79090    1.000
    C268     C        0.66848    0.92359    0.47250    1.000
    H226     H        0.67830    0.92860    0.51930    1.000
    C269     C        0.68506    0.90172    0.42650    1.000
    H227     H        0.70580    0.89220    0.44110    1.000
    C270     C        0.62714    0.93135    0.38820    1.000
    H228     H        0.60700    0.94220    0.37360    1.000
    C271     C        0.64190    0.90940    0.33840    1.000
    H229     H        0.63200    0.90530    0.29140    1.000
    C272     C        0.67102    0.89379    0.35810    1.000
    C273     C        0.68780    0.86940    0.30450    1.000
    H230     H        0.70420    0.85550    0.33220    1.000
    H231     H        0.67060    0.85410    0.28380    1.000
    Mn22     Mn       0.29248    0.17600    0.41839    1.000
    O64      O        0.26346    0.15326    0.48150    1.000
    O65      O        0.27002    0.25257    0.56512    1.000
    O66      O        0.31994    0.20619    0.35984    1.000
    N57      N        0.28447    0.21740    0.47091    1.000
    N58      N        0.30085    0.24605    0.44056    1.000
    C274     C        0.24897    0.16400    0.54290    1.000
    C275     C        0.22940    0.13983    0.58100    1.000
    H232     H        0.22520    0.11850    0.55950    1.000
    C276     C        0.21660    0.14793    0.65050    1.000
    H233     H        0.20340    0.13190    0.67640    1.000
    C277     C        0.22260    0.17909    0.68270    1.000
    H234     H        0.21560    0.18350    0.73210    1.000
    C278     C        0.23860    0.20309    0.64230    1.000
    H235     H        0.24010    0.22520    0.66170    1.000
    C279     C        0.25293    0.19609    0.57320    1.000
    C280     C        0.26975    0.22351    0.53500    1.000
    C281     C        0.31851    0.23701    0.38348    1.000
    C282     C        0.33906    0.26282    0.34360    1.000
    H236     H        0.32600    0.27220    0.30250    1.000
    H237     H        0.35950    0.25240    0.32420    1.000
    H238     H        0.34510    0.28080    0.37810    1.000
    Mn23     Mn       0.28259    0.29151    0.50308    1.000
    O67      O        0.32445    0.29999    0.54441    1.000
    O68      O        0.31636    0.36463    0.35837    1.000
    O69      O        0.23995    0.28948    0.45217    1.000
    N59      N        0.28879    0.32746    0.43194    1.000
    N60      N        0.26132    0.33289    0.38487    1.000
    N61      N        0.25700    0.32338    0.59050    1.000
    C283     C        0.34765    0.32268    0.52640    1.000
    C284     C        0.37566    0.32471    0.57220    1.000
    H239     H        0.37740    0.31030    0.61380    1.000
    C285     C        0.40111    0.34764    0.55770    1.000
    H240     H        0.41990    0.34890    0.58990    1.000
    C286     C        0.39917    0.36861    0.49680    1.000
    H241     H        0.41680    0.38380    0.48620    1.000
    C287     C        0.37138    0.36715    0.45170    1.000
    H242     H        0.36980    0.38180    0.41040    1.000
    C288     C        0.34521    0.34441    0.46550    1.000
    C289     C        0.31563    0.34564    0.41595    1.000
    C290     C        0.23711    0.31227    0.40110    1.000
    C291     C        0.20490    0.31503    0.36050    1.000
    H243     H        0.20520    0.30000    0.31760    1.000
    H244     H        0.20180    0.33820    0.34360    1.000
    H245     H        0.18640    0.30880    0.39350    1.000
    C292     C        0.22770    0.31172    0.62110    1.000
    H246     H        0.21970    0.29010    0.60830    1.000
    C293     C        0.20960    0.33140    0.67070    1.000
    H247     H        0.18930    0.32330    0.69160    1.000
    C294     C        0.26220    0.35378    0.60220    1.000
    H248     H        0.28030    0.36380    0.57630    1.000
    C295     C        0.24400    0.37417    0.64960    1.000
    H249     H        0.24910    0.39740    0.65130    1.000
    C296     C        0.22160    0.36339    0.68950    1.000
    C297     C        0.20450    0.38560    0.74570    1.000
    H250     H        0.22150    0.40080    0.76720    1.000
    H251     H        0.18800    0.39970    0.71920    1.000
    Mn24     Mn       0.22175    0.13774    0.21403    1.000
    O70      O        0.24173    0.09827    0.18470    1.000
    O71      O        0.30224    0.13516    0.36160    1.000
    O72      O        0.20727    0.18018    0.25442    1.000
    N62      N        0.25677    0.14513    0.28733    1.000
    N63      N        0.25434    0.17614    0.32540    1.000
    N64      N        0.13955    0.43810    0.95531    1.000
    C298     C        0.26690    0.08160    0.21570    1.000
    C299     C        0.27398    0.04946    0.18700    1.000
    H252     H        0.26080    0.04110    0.14730    1.000
    C300     C        0.29951    0.02990    0.21520    1.000
    H253     H        0.30400    0.00850    0.19420    1.000
    C301     C        0.31887    0.04147    0.27480    1.000
    H254     H        0.33630    0.02810    0.29480    1.000
    C302     C        0.31222    0.07213    0.30310    1.000
    H255     H        0.32520    0.07990    0.34370    1.000
    C303     C        0.28697    0.09274    0.27500    1.000
    C304     C        0.28210    0.12613    0.30990    1.000
    C305     C        0.22802    0.19218    0.30340    1.000
    C306     C        0.22114    0.22661    0.33250    1.000
    H256     H        0.20130    0.22600    0.36440    1.000
    H257     H        0.24050    0.23440    0.36130    1.000
    H258     H        0.21720    0.24190    0.29090    1.000
    C307     C        0.16848    0.42359    0.97250    1.000
    H259     H        0.17830    0.42860    0.01930    1.000
    C308     C        0.18506    0.40172    0.92650    1.000
    H260     H        0.20580    0.39220    0.94110    1.000
    C309     C        0.12714    0.43135    0.88820    1.000
    H261     H        0.10700    0.44220    0.87360    1.000
    C310     C        0.14190    0.40940    0.83840    1.000
    H262     H        0.13200    0.40530    0.79140    1.000
    C311     C        0.17102    0.39379    0.85810    1.000
    C312     C        0.18780    0.36940    0.80450    1.000
    H263     H        0.20420    0.35550    0.83220    1.000
    H264     H        0.17060    0.35410    0.78380    1.000
    Mn25     Mn       0.92600    0.95752    0.83161    1.000
    O73      O        0.90326    0.98654    0.76850    1.000
    O74      O        0.00257    0.97998    0.68488    1.000
    O75      O        0.95619    0.93006    0.89016    1.000
    N65      N        0.96740    0.96553    0.77909    1.000
    N66      N        0.99605    0.94915    0.80944    1.000
    C313     C        0.91400    0.00103    0.70710    1.000
    C314     C        0.88983    0.02060    0.66900    1.000
    H265     H        0.86850    0.02480    0.69050    1.000
    C315     C        0.89793    0.03340    0.59950    1.000
    H266     H        0.88190    0.04660    0.57360    1.000
    C316     C        0.92909    0.02740    0.56730    1.000
    H267     H        0.93350    0.03440    0.51790    1.000
    C317     C        0.95309    0.01140    0.60770    1.000
    H268     H        0.97520    0.00990    0.58830    1.000
    C318     C        0.94609    0.99707    0.67680    1.000
    C319     C        0.97351    0.98025    0.71500    1.000
    C320     C        0.98701    0.93149    0.86652    1.000
    C321     C        0.01282    0.91094    0.90640    1.000
    H269     H        0.02220    0.92400    0.94750    1.000
    H270     H        0.00240    0.89050    0.92580    1.000
    H271     H        0.03080    0.90490    0.87190    1.000
    Mn26     Mn       0.04151    0.96741    0.74692    1.000
    O76      O        0.04999    0.92555    0.70559    1.000
    O77      O        0.11463    0.93364    0.89163    1.000
    O78      O        0.03948    0.01005    0.79783    1.000
    N67      N        0.07746    0.96121    0.81806    1.000
    N68      N        0.08289    0.98868    0.86513    1.000
    N69      N        0.07338    0.99300    0.65950    1.000
    C322     C        0.07268    0.90235    0.72360    1.000
    C323     C        0.07471    0.87434    0.67780    1.000
    H272     H        0.06030    0.87260    0.63620    1.000
    C324     C        0.09764    0.84889    0.69230    1.000
    H273     H        0.09890    0.83010    0.66010    1.000
    C325     C        0.11861    0.85083    0.75320    1.000
    H274     H        0.13380    0.83320    0.76380    1.000
    C326     C        0.11715    0.87862    0.79830    1.000
    H275     H        0.13180    0.88020    0.83960    1.000
    C327     C        0.09441    0.90479    0.78450    1.000
    C328     C        0.09564    0.93437    0.83405    1.000
    C329     C        0.06227    0.01289    0.84890    1.000
    C330     C        0.06503    0.04510    0.88950    1.000
    H276     H        0.05000    0.04480    0.93240    1.000
    H277     H        0.08820    0.04820    0.90640    1.000
    H278     H        0.05880    0.06360    0.85650    1.000
    C331     C        0.06172    0.02230    0.62890    1.000
    H279     H        0.04010    0.03030    0.64170    1.000
    C332     C        0.08140    0.04040    0.57930    1.000
    H280     H        0.07330    0.06070    0.55840    1.000
    C333     C        0.10378    0.98780    0.64780    1.000
    H281     H        0.11380    0.96970    0.67370    1.000
    C334     C        0.12417    0.00600    0.60040    1.000
    H282     H        0.14740    0.00090    0.59870    1.000
    C335     C        0.11339    0.02840    0.56050    1.000
    C336     C        0.13560    0.04550    0.50430    1.000
    H283     H        0.15080    0.02850    0.48280    1.000
    H284     H        0.14970    0.06200    0.53080    1.000
    Mn27     Mn       0.88774    0.02825    0.03597    1.000
    O79      O        0.84827    0.00827    0.06530    1.000
    O80      O        0.88516    0.94776    0.88840    1.000
    O81      O        0.93018    0.04273    0.99558    1.000
    N70      N        0.89513    0.99323    0.96267    1.000
    N71      N        0.92614    0.99566    0.92460    1.000
    N72      N        0.18810    0.11045    0.29469    1.000
    C337     C        0.83160    0.98310    0.03430    1.000
    C338     C        0.79946    0.97602    0.06300    1.000
    H285     H        0.79110    0.98920    0.10270    1.000
    C339     C        0.77990    0.95049    0.03480    1.000
    H286     H        0.75850    0.94600    0.05580    1.000
    C340     C        0.79147    0.93113    0.97520    1.000
    H287     H        0.77810    0.91370    0.95520    1.000
    C341     C        0.82213    0.93778    0.94690    1.000
    H288     H        0.82990    0.92480    0.90630    1.000
    C342     C        0.84274    0.96303    0.97500    1.000
    C343     C        0.87613    0.96790    0.94010    1.000
    C344     C        0.94218    0.02198    0.94660    1.000
    C345     C        0.97661    0.02886    0.91750    1.000
    H289     H        0.97600    0.04870    0.88560    1.000
    H290     H        0.98440    0.00950    0.88870    1.000
    H291     H        0.99190    0.03280    0.95910    1.000
    C346     C        0.17359    0.08152    0.27750    1.000
    H292     H        0.17860    0.07170    0.23070    1.000
    C347     C        0.15172    0.06494    0.32350    1.000
    H293     H        0.14220    0.04420    0.30890    1.000
    C348     C        0.18135    0.12286    0.36180    1.000
    H294     H        0.19220    0.14300    0.37640    1.000
    C349     C        0.15940    0.10810    0.41160    1.000
    H295     H        0.15530    0.11800    0.45860    1.000
    C350     C        0.14379    0.07898    0.39190    1.000
    C351     C        0.11940    0.06220    0.44550    1.000
    H296     H        0.10550    0.04580    0.41780    1.000
    H297     H        0.10410    0.07940    0.46620    1.000
    Mn28     Mn       0.42600    0.45752    0.33161    1.000
    O82      O        0.40326    0.48654    0.26850    1.000
    O83      O        0.50257    0.47998    0.18488    1.000
    O84      O        0.45619    0.43006    0.39016    1.000
    N73      N        0.46740    0.46553    0.27909    1.000
    N74      N        0.49605    0.44915    0.30944    1.000
    C352     C        0.41400    0.50103    0.20710    1.000
    C353     C        0.38983    0.52060    0.16900    1.000
    H298     H        0.36850    0.52480    0.19050    1.000
    C354     C        0.39793    0.53340    0.09950    1.000
    H299     H        0.38190    0.54660    0.07360    1.000
    C355     C        0.42909    0.52740    0.06730    1.000
    H300     H        0.43350    0.53440    0.01790    1.000
    C356     C        0.45309    0.51140    0.10770    1.000
    H301     H        0.47520    0.50990    0.08830    1.000
    C357     C        0.44609    0.49707    0.17680    1.000
    C358     C        0.47351    0.48025    0.21500    1.000
    C359     C        0.48701    0.43149    0.36652    1.000
    C360     C        0.51282    0.41094    0.40640    1.000
    H302     H        0.52220    0.42400    0.44750    1.000
    H303     H        0.50240    0.39050    0.42580    1.000
    H304     H        0.53080    0.40490    0.37190    1.000
    Mn29     Mn       0.54151    0.46741    0.24692    1.000
    O85      O        0.54999    0.42555    0.20559    1.000
    O86      O        0.61463    0.43364    0.39163    1.000
    O87      O        0.53948    0.51005    0.29783    1.000
    N75      N        0.57746    0.46121    0.31806    1.000
    N76      N        0.58289    0.48868    0.36513    1.000
    N77      N        0.57338    0.49300    0.15950    1.000
    C361     C        0.57268    0.40235    0.22360    1.000
    C362     C        0.57471    0.37434    0.17780    1.000
    H305     H        0.56030    0.37260    0.13620    1.000
    C363     C        0.59764    0.34889    0.19230    1.000
    H306     H        0.59890    0.33010    0.16010    1.000
    C364     C        0.61861    0.35083    0.25320    1.000
    H307     H        0.63380    0.33320    0.26380    1.000
    C365     C        0.61715    0.37862    0.29830    1.000
    H308     H        0.63180    0.38020    0.33960    1.000
    C366     C        0.59441    0.40479    0.28450    1.000
    C367     C        0.59564    0.43437    0.33405    1.000
    C368     C        0.56227    0.51289    0.34890    1.000
    C369     C        0.56503    0.54510    0.38950    1.000
    H309     H        0.55000    0.54480    0.43240    1.000
    H310     H        0.58820    0.54820    0.40640    1.000
    H311     H        0.55880    0.56360    0.35650    1.000
    C370     C        0.56172    0.52230    0.12890    1.000
    H312     H        0.54010    0.53030    0.14170    1.000
    C371     C        0.58140    0.54040    0.07930    1.000
    H313     H        0.57330    0.56070    0.05840    1.000
    C372     C        0.60378    0.48780    0.14780    1.000
    H314     H        0.61380    0.46970    0.17370    1.000
    C373     C        0.62417    0.50600    0.10040    1.000
    H315     H        0.64740    0.50090    0.09870    1.000
    C374     C        0.61339    0.52840    0.06050    1.000
    C375     C        0.63560    0.54550    0.00430    1.000
    H316     H        0.65080    0.52850    0.98280    1.000
    H317     H        0.64970    0.56200    0.03080    1.000
    Mn30     Mn       0.38774    0.52825    0.53597    1.000
    O88      O        0.34827    0.50827    0.56530    1.000
    O89      O        0.38516    0.44776    0.38840    1.000
    O90      O        0.43018    0.54273    0.49558    1.000
    N78      N        0.39513    0.49323    0.46267    1.000
    N79      N        0.42614    0.49566    0.42460    1.000
    N80      N        0.68810    0.61045    0.79469    1.000
    C376     C        0.33160    0.48310    0.53430    1.000
    C377     C        0.29946    0.47602    0.56300    1.000
    H318     H        0.29110    0.48920    0.60270    1.000
    C378     C        0.27990    0.45049    0.53480    1.000
    H319     H        0.25850    0.44600    0.55580    1.000
    C379     C        0.29147    0.43113    0.47520    1.000
    H320     H        0.27810    0.41370    0.45520    1.000
    C380     C        0.32213    0.43778    0.44690    1.000
    H321     H        0.32990    0.42480    0.40630    1.000
    C381     C        0.34274    0.46303    0.47500    1.000
    C382     C        0.37613    0.46790    0.44010    1.000
    C383     C        0.44218    0.52198    0.44660    1.000
    C384     C        0.47661    0.52886    0.41750    1.000
    H322     H        0.47600    0.54870    0.38560    1.000
    H323     H        0.48440    0.50950    0.38870    1.000
    H324     H        0.49190    0.53280    0.45910    1.000
    C385     C        0.67359    0.58152    0.77750    1.000
    H325     H        0.67860    0.57170    0.73070    1.000
    C386     C        0.65172    0.56494    0.82350    1.000
    H326     H        0.64220    0.54420    0.80890    1.000
    C387     C        0.68135    0.62286    0.86180    1.000
    H327     H        0.69220    0.64300    0.87640    1.000
    C388     C        0.65940    0.60810    0.91160    1.000
    H328     H        0.65530    0.61800    0.95860    1.000
    C389     C        0.64379    0.57898    0.89190    1.000
    C390     C        0.61940    0.56220    0.94550    1.000
    H329     H        0.60550    0.54580    0.91780    1.000
    H330     H        0.60410    0.57940    0.96620    1.000
    Mn31     Mn       0.57400    0.04248    0.33161    1.000
    O91      O        0.59674    0.01346    0.26850    1.000
    O92      O        0.49743    0.02002    0.18488    1.000
    O93      O        0.54381    0.06994    0.39016    1.000
    N81      N        0.53260    0.03447    0.27909    1.000
    N82      N        0.50395    0.05085    0.30944    1.000
    C391     C        0.58600    0.99897    0.20710    1.000
    C392     C        0.61017    0.97940    0.16900    1.000
    H331     H        0.63150    0.97520    0.19050    1.000
    C393     C        0.60207    0.96660    0.09950    1.000
    H332     H        0.61810    0.95340    0.07360    1.000
    C394     C        0.57091    0.97260    0.06730    1.000
    H333     H        0.56650    0.96560    0.01790    1.000
    C395     C        0.54691    0.98860    0.10770    1.000
    H334     H        0.52480    0.99010    0.08830    1.000
    C396     C        0.55391    0.00293    0.17680    1.000
    C397     C        0.52649    0.01975    0.21500    1.000
    C398     C        0.51299    0.06851    0.36652    1.000
    C399     C        0.48718    0.08906    0.40640    1.000
    H335     H        0.47780    0.07600    0.44750    1.000
    H336     H        0.49760    0.10950    0.42580    1.000
    H337     H        0.46920    0.09510    0.37190    1.000
    Mn32     Mn       0.45849    0.03259    0.24692    1.000
    O94      O        0.45001    0.07445    0.20559    1.000
    O95      O        0.38537    0.06636    0.39163    1.000
    O96      O        0.46052    0.98995    0.29783    1.000
    N83      N        0.42254    0.03879    0.31806    1.000
    N84      N        0.41711    0.01132    0.36513    1.000
    N85      N        0.42662    0.00700    0.15950    1.000
    C400     C        0.42732    0.09765    0.22360    1.000
    C401     C        0.42529    0.12566    0.17780    1.000
    H338     H        0.43970    0.12740    0.13620    1.000
    C402     C        0.40236    0.15111    0.19230    1.000
    H339     H        0.40110    0.16990    0.16010    1.000
    C403     C        0.38139    0.14917    0.25320    1.000
    H340     H        0.36620    0.16680    0.26380    1.000
    C404     C        0.38285    0.12138    0.29830    1.000
    H341     H        0.36820    0.11980    0.33960    1.000
    C405     C        0.40559    0.09521    0.28450    1.000
    C406     C        0.40436    0.06563    0.33405    1.000
    C407     C        0.43773    0.98711    0.34890    1.000
    C408     C        0.43497    0.95490    0.38950    1.000
    H342     H        0.45000    0.95520    0.43240    1.000
    H343     H        0.41180    0.95180    0.40640    1.000
    H344     H        0.44120    0.93640    0.35650    1.000
    C409     C        0.43828    0.97770    0.12890    1.000
    H345     H        0.45990    0.96970    0.14170    1.000
    C410     C        0.41860    0.95960    0.07930    1.000
    H346     H        0.42670    0.93930    0.05840    1.000
    C411     C        0.39622    0.01220    0.14780    1.000
    H347     H        0.38620    0.03030    0.17370    1.000
    C412     C        0.37583    0.99400    0.10040    1.000
    H348     H        0.35260    0.99910    0.09870    1.000
    C413     C        0.38661    0.97160    0.06050    1.000
    C414     C        0.36440    0.95450    0.00430    1.000
    H349     H        0.34920    0.97150    0.98280    1.000
    H350     H        0.35030    0.93800    0.03080    1.000
    Mn33     Mn       0.61226    0.97175    0.53597    1.000
    O97      O        0.65173    0.99173    0.56530    1.000
    O98      O        0.61484    0.05224    0.38840    1.000
    O99      O        0.56982    0.95727    0.49558    1.000
    N86      N        0.60487    0.00677    0.46267    1.000
    N87      N        0.57386    0.00434    0.42460    1.000
    N88      N        0.31190    0.88955    0.79469    1.000
    C415     C        0.66840    0.01690    0.53430    1.000
    C416     C        0.70054    0.02398    0.56300    1.000
    H351     H        0.70890    0.01080    0.60270    1.000
    C417     C        0.72010    0.04951    0.53480    1.000
    H352     H        0.74150    0.05400    0.55580    1.000
    C418     C        0.70853    0.06887    0.47520    1.000
    H353     H        0.72190    0.08630    0.45520    1.000
    C419     C        0.67787    0.06222    0.44690    1.000
    H354     H        0.67010    0.07520    0.40630    1.000
    C420     C        0.65726    0.03697    0.47500    1.000
    C421     C        0.62387    0.03210    0.44010    1.000
    C422     C        0.55782    0.97802    0.44660    1.000
    C423     C        0.52339    0.97114    0.41750    1.000
    H355     H        0.52400    0.95130    0.38560    1.000
    H356     H        0.51560    0.99050    0.38870    1.000
    H357     H        0.50810    0.96720    0.45910    1.000
    C424     C        0.32641    0.91848    0.77750    1.000
    H358     H        0.32140    0.92830    0.73070    1.000
    C425     C        0.34828    0.93506    0.82350    1.000
    H359     H        0.35780    0.95580    0.80890    1.000
    C426     C        0.31865    0.87714    0.86180    1.000
    H360     H        0.30780    0.85700    0.87640    1.000
    C427     C        0.34060    0.89190    0.91160    1.000
    H361     H        0.34470    0.88200    0.95860    1.000
    C428     C        0.35621    0.92102    0.89190    1.000
    C429     C        0.38060    0.93780    0.94550    1.000
    H362     H        0.39450    0.95420    0.91780    1.000
    H363     H        0.39590    0.92060    0.96620    1.000
    Mn34     Mn       0.07400    0.54248    0.83161    1.000
    O100     O        0.09674    0.51346    0.76850    1.000
    O101     O        0.99743    0.52002    0.68488    1.000
    O102     O        0.04381    0.56994    0.89016    1.000
    N89      N        0.03260    0.53447    0.77909    1.000
    N90      N        0.00395    0.55085    0.80944    1.000
    C430     C        0.08600    0.49897    0.70710    1.000
    C431     C        0.11017    0.47940    0.66900    1.000
    H364     H        0.13150    0.47520    0.69050    1.000
    C432     C        0.10207    0.46660    0.59950    1.000
    H365     H        0.11810    0.45340    0.57360    1.000
    C433     C        0.07091    0.47260    0.56730    1.000
    H366     H        0.06650    0.46560    0.51790    1.000
    C434     C        0.04691    0.48860    0.60770    1.000
    H367     H        0.02480    0.49010    0.58830    1.000
    C435     C        0.05391    0.50293    0.67680    1.000
    C436     C        0.02649    0.51975    0.71500    1.000
    C437     C        0.01299    0.56851    0.86652    1.000
    C438     C        0.98718    0.58906    0.90640    1.000
    H368     H        0.97780    0.57600    0.94750    1.000
    H369     H        0.99760    0.60950    0.92580    1.000
    H370     H        0.96920    0.59510    0.87190    1.000
    Mn35     Mn       0.95849    0.53259    0.74692    1.000
    O103     O        0.95001    0.57445    0.70559    1.000
    O104     O        0.88537    0.56636    0.89163    1.000
    O105     O        0.96052    0.48995    0.79783    1.000
    N91      N        0.92254    0.53879    0.81806    1.000
    N92      N        0.91711    0.51132    0.86513    1.000
    N93      N        0.92662    0.50700    0.65950    1.000
    C439     C        0.92732    0.59765    0.72360    1.000
    C440     C        0.92529    0.62566    0.67780    1.000
    H371     H        0.93970    0.62740    0.63620    1.000
    C441     C        0.90236    0.65111    0.69230    1.000
    H372     H        0.90110    0.66990    0.66010    1.000
    C442     C        0.88139    0.64917    0.75320    1.000
    H373     H        0.86620    0.66680    0.76380    1.000
    C443     C        0.88285    0.62138    0.79830    1.000
    H374     H        0.86820    0.61980    0.83960    1.000
    C444     C        0.90559    0.59521    0.78450    1.000
    C445     C        0.90436    0.56563    0.83405    1.000
    C446     C        0.93773    0.48711    0.84890    1.000
    C447     C        0.93497    0.45490    0.88950    1.000
    H375     H        0.95000    0.45520    0.93240    1.000
    H376     H        0.91180    0.45180    0.90640    1.000
    H377     H        0.94120    0.43640    0.85650    1.000
    C448     C        0.93828    0.47770    0.62890    1.000
    H378     H        0.95990    0.46970    0.64170    1.000
    C449     C        0.91860    0.45960    0.57930    1.000
    H379     H        0.92670    0.43930    0.55840    1.000
    C450     C        0.89622    0.51220    0.64780    1.000
    H380     H        0.88620    0.53030    0.67370    1.000
    C451     C        0.87583    0.49400    0.60040    1.000
    H381     H        0.85260    0.49910    0.59870    1.000
    C452     C        0.88661    0.47160    0.56050    1.000
    C453     C        0.86440    0.45450    0.50430    1.000
    H382     H        0.84920    0.47150    0.48280    1.000
    H383     H        0.85030    0.43800    0.53080    1.000
    Mn36     Mn       0.11226    0.47175    0.03597    1.000
    O106     O        0.15173    0.49173    0.06530    1.000
    O107     O        0.11484    0.55224    0.88840    1.000
    O108     O        0.06982    0.45727    0.99558    1.000
    N94      N        0.10487    0.50677    0.96267    1.000
    N95      N        0.07386    0.50434    0.92460    1.000
    N96      N        0.81190    0.38955    0.29469    1.000
    C454     C        0.16840    0.51690    0.03430    1.000
    C455     C        0.20054    0.52398    0.06300    1.000
    H384     H        0.20890    0.51080    0.10270    1.000
    C456     C        0.22010    0.54951    0.03480    1.000
    H385     H        0.24150    0.55400    0.05580    1.000
    C457     C        0.20853    0.56887    0.97520    1.000
    H386     H        0.22190    0.58630    0.95520    1.000
    C458     C        0.17787    0.56222    0.94690    1.000
    H387     H        0.17010    0.57520    0.90630    1.000
    C459     C        0.15726    0.53697    0.97500    1.000
    C460     C        0.12387    0.53210    0.94010    1.000
    C461     C        0.05782    0.47802    0.94660    1.000
    C462     C        0.02339    0.47114    0.91750    1.000
    H388     H        0.02400    0.45130    0.88560    1.000
    H389     H        0.01560    0.49050    0.88870    1.000
    H390     H        0.00810    0.46720    0.95910    1.000
    C463     C        0.82641    0.41848    0.27750    1.000
    H391     H        0.82140    0.42830    0.23070    1.000
    C464     C        0.84828    0.43506    0.32350    1.000
    H392     H        0.85780    0.45580    0.30890    1.000
    C465     C        0.81865    0.37714    0.36180    1.000
    H393     H        0.80780    0.35700    0.37640    1.000
    C466     C        0.84060    0.39190    0.41160    1.000
    H394     H        0.84470    0.38200    0.45860    1.000
    C467     C        0.85621    0.42102    0.39190    1.000
    C468     C        0.88060    0.43780    0.44550    1.000
    H395     H        0.89450    0.45420    0.41780    1.000
    H396     H        0.89590    0.42060    0.46620    1.000
    Mn37     Mn       0.29248    0.67600    0.58161    1.000
    O109     O        0.26346    0.65326    0.51850    1.000
    O110     O        0.27002    0.75257    0.43488    1.000
    O111     O        0.31994    0.70619    0.64016    1.000
    N97      N        0.28447    0.71740    0.52909    1.000
    N98      N        0.30085    0.74605    0.55944    1.000
    C469     C        0.24897    0.66400    0.45710    1.000
    C470     C        0.22940    0.63983    0.41900    1.000
    H397     H        0.22520    0.61850    0.44050    1.000
    C471     C        0.21660    0.64793    0.34950    1.000
    H398     H        0.20340    0.63190    0.32360    1.000
    C472     C        0.22260    0.67909    0.31730    1.000
    H399     H        0.21560    0.68350    0.26790    1.000
    C473     C        0.23860    0.70309    0.35770    1.000
    H400     H        0.24010    0.72520    0.33830    1.000
    C474     C        0.25293    0.69609    0.42680    1.000
    C475     C        0.26975    0.72351    0.46500    1.000
    C476     C        0.31851    0.73701    0.61652    1.000
    C477     C        0.33906    0.76282    0.65640    1.000
    H401     H        0.32600    0.77220    0.69750    1.000
    H402     H        0.35950    0.75240    0.67580    1.000
    H403     H        0.34510    0.78080    0.62190    1.000
    Mn38     Mn       0.28259    0.79151    0.49692    1.000
    O112     O        0.32445    0.79999    0.45559    1.000
    O113     O        0.31636    0.86463    0.64163    1.000
    O114     O        0.23995    0.78948    0.54783    1.000
    N99      N        0.28879    0.82746    0.56806    1.000
    N100     N        0.26132    0.83289    0.61513    1.000
    N101     N        0.25700    0.82338    0.40950    1.000
    C478     C        0.34765    0.82268    0.47360    1.000
    C479     C        0.37566    0.82471    0.42780    1.000
    H404     H        0.37740    0.81030    0.38620    1.000
    C480     C        0.40111    0.84764    0.44230    1.000
    H405     H        0.41990    0.84890    0.41010    1.000
    C481     C        0.39917    0.86861    0.50320    1.000
    H406     H        0.41680    0.88380    0.51380    1.000
    C482     C        0.37138    0.86715    0.54830    1.000
    H407     H        0.36980    0.88180    0.58960    1.000
    C483     C        0.34521    0.84441    0.53450    1.000
    C484     C        0.31563    0.84564    0.58405    1.000
    C485     C        0.23711    0.81227    0.59890    1.000
    C486     C        0.20490    0.81503    0.63950    1.000
    H408     H        0.20520    0.80000    0.68240    1.000
    H409     H        0.20180    0.83820    0.65640    1.000
    H410     H        0.18640    0.80880    0.60650    1.000
    C487     C        0.22770    0.81172    0.37890    1.000
    H411     H        0.21970    0.79010    0.39170    1.000
    C488     C        0.20960    0.83140    0.32930    1.000
    H412     H        0.18930    0.82330    0.30840    1.000
    C489     C        0.26220    0.85378    0.39780    1.000
    H413     H        0.28030    0.86380    0.42370    1.000
    C490     C        0.24400    0.87417    0.35040    1.000
    H414     H        0.24910    0.89740    0.34870    1.000
    C491     C        0.22160    0.86339    0.31050    1.000
    C492     C        0.20450    0.88560    0.25430    1.000
    H415     H        0.22150    0.90080    0.23280    1.000
    H416     H        0.18800    0.89970    0.28080    1.000
    Mn39     Mn       0.22175    0.63774    0.78597    1.000
    O115     O        0.24173    0.59827    0.81530    1.000
    O116     O        0.30224    0.63516    0.63840    1.000
    O117     O        0.20727    0.68018    0.74558    1.000
    N102     N        0.25677    0.64513    0.71267    1.000
    N103     N        0.25434    0.67614    0.67460    1.000
    N104     N        0.13955    0.93810    0.04469    1.000
    C493     C        0.26690    0.58160    0.78430    1.000
    C494     C        0.27398    0.54946    0.81300    1.000
    H417     H        0.26080    0.54110    0.85270    1.000
    C495     C        0.29951    0.52990    0.78480    1.000
    H418     H        0.30400    0.50850    0.80580    1.000
    C496     C        0.31887    0.54147    0.72520    1.000
    H419     H        0.33630    0.52810    0.70520    1.000
    C497     C        0.31222    0.57213    0.69690    1.000
    H420     H        0.32520    0.57990    0.65630    1.000
    C498     C        0.28697    0.59274    0.72500    1.000
    C499     C        0.28210    0.62613    0.69010    1.000
    C500     C        0.22802    0.69218    0.69660    1.000
    C501     C        0.22114    0.72661    0.66750    1.000
    H421     H        0.20130    0.72600    0.63560    1.000
    H422     H        0.24050    0.73440    0.63870    1.000
    H423     H        0.21720    0.74190    0.70910    1.000
    C502     C        0.16848    0.92359    0.02750    1.000
    H424     H        0.17830    0.92860    0.98070    1.000
    C503     C        0.18506    0.90172    0.07350    1.000
    H425     H        0.20580    0.89220    0.05890    1.000
    C504     C        0.12714    0.93135    0.11180    1.000
    H426     H        0.10700    0.94220    0.12640    1.000
    C505     C        0.14190    0.90940    0.16160    1.000
    H427     H        0.13200    0.90530    0.20860    1.000
    C506     C        0.17102    0.89379    0.14190    1.000
    C507     C        0.18780    0.86940    0.19550    1.000
    H428     H        0.20420    0.85550    0.16780    1.000
    H429     H        0.17060    0.85410    0.21620    1.000
    Mn40     Mn       0.79248    0.17600    0.08161    1.000
    O118     O        0.76346    0.15326    0.01850    1.000
    O119     O        0.77002    0.25257    0.93488    1.000
    O120     O        0.81994    0.20619    0.14016    1.000
    N105     N        0.78447    0.21740    0.02909    1.000
    N106     N        0.80085    0.24605    0.05944    1.000
    C508     C        0.74897    0.16400    0.95710    1.000
    C509     C        0.72940    0.13983    0.91900    1.000
    H430     H        0.72520    0.11850    0.94050    1.000
    C510     C        0.71660    0.14793    0.84950    1.000
    H431     H        0.70340    0.13190    0.82360    1.000
    C511     C        0.72260    0.17909    0.81730    1.000
    H432     H        0.71560    0.18350    0.76790    1.000
    C512     C        0.73860    0.20309    0.85770    1.000
    H433     H        0.74010    0.22520    0.83830    1.000
    C513     C        0.75293    0.19609    0.92680    1.000
    C514     C        0.76975    0.22351    0.96500    1.000
    C515     C        0.81851    0.23701    0.11652    1.000
    C516     C        0.83906    0.26282    0.15640    1.000
    H434     H        0.82600    0.27220    0.19750    1.000
    H435     H        0.85950    0.25240    0.17580    1.000
    H436     H        0.84510    0.28080    0.12190    1.000
    Mn41     Mn       0.78259    0.29151    0.99692    1.000
    O121     O        0.82445    0.29999    0.95559    1.000
    O122     O        0.81636    0.36463    0.14163    1.000
    O123     O        0.73995    0.28948    0.04783    1.000
    N107     N        0.78879    0.32746    0.06806    1.000
    N108     N        0.76132    0.33289    0.11513    1.000
    N109     N        0.75700    0.32338    0.90950    1.000
    C517     C        0.84765    0.32268    0.97360    1.000
    C518     C        0.87566    0.32471    0.92780    1.000
    H437     H        0.87740    0.31030    0.88620    1.000
    C519     C        0.90111    0.34764    0.94230    1.000
    H438     H        0.91990    0.34890    0.91010    1.000
    C520     C        0.89917    0.36861    0.00320    1.000
    H439     H        0.91680    0.38380    0.01380    1.000
    C521     C        0.87138    0.36715    0.04830    1.000
    H440     H        0.86980    0.38180    0.08960    1.000
    C522     C        0.84521    0.34441    0.03450    1.000
    C523     C        0.81563    0.34564    0.08405    1.000
    C524     C        0.73711    0.31227    0.09890    1.000
    C525     C        0.70490    0.31503    0.13950    1.000
    H441     H        0.70520    0.30000    0.18240    1.000
    H442     H        0.70180    0.33820    0.15640    1.000
    H443     H        0.68640    0.30880    0.10650    1.000
    C526     C        0.72770    0.31172    0.87890    1.000
    H444     H        0.71970    0.29010    0.89170    1.000
    C527     C        0.70960    0.33140    0.82930    1.000
    H445     H        0.68930    0.32330    0.80840    1.000
    C528     C        0.76220    0.35378    0.89780    1.000
    H446     H        0.78030    0.36380    0.92370    1.000
    C529     C        0.74400    0.37417    0.85040    1.000
    H447     H        0.74910    0.39740    0.84870    1.000
    C530     C        0.72160    0.36339    0.81050    1.000
    C531     C        0.70450    0.38560    0.75430    1.000
    H448     H        0.72150    0.40080    0.73280    1.000
    H449     H        0.68800    0.39970    0.78080    1.000
    Mn42     Mn       0.72175    0.13774    0.28597    1.000
    O124     O        0.74173    0.09827    0.31530    1.000
    O125     O        0.80224    0.13516    0.13840    1.000
    O126     O        0.70727    0.18018    0.24558    1.000
    N110     N        0.75677    0.14513    0.21267    1.000
    N111     N        0.75434    0.17614    0.17460    1.000
    N112     N        0.63955    0.43810    0.54469    1.000
    C532     C        0.76690    0.08160    0.28430    1.000
    C533     C        0.77398    0.04946    0.31300    1.000
    H450     H        0.76080    0.04110    0.35270    1.000
    C534     C        0.79951    0.02990    0.28480    1.000
    H451     H        0.80400    0.00850    0.30580    1.000
    C535     C        0.81887    0.04147    0.22520    1.000
    H452     H        0.83630    0.02810    0.20520    1.000
    C536     C        0.81222    0.07213    0.19690    1.000
    H453     H        0.82520    0.07990    0.15630    1.000
    C537     C        0.78697    0.09274    0.22500    1.000
    C538     C        0.78210    0.12613    0.19010    1.000
    C539     C        0.72802    0.19218    0.19660    1.000
    C540     C        0.72114    0.22661    0.16750    1.000
    H454     H        0.70130    0.22600    0.13560    1.000
    H455     H        0.74050    0.23440    0.13870    1.000
    H456     H        0.71720    0.24190    0.20910    1.000
    C541     C        0.66848    0.42359    0.52750    1.000
    H457     H        0.67830    0.42860    0.48070    1.000
    C542     C        0.68506    0.40172    0.57350    1.000
    H458     H        0.70580    0.39220    0.55890    1.000
    C543     C        0.62714    0.43135    0.61180    1.000
    H459     H        0.60700    0.44220    0.62640    1.000
    C544     C        0.64190    0.40940    0.66160    1.000
    H460     H        0.63200    0.40530    0.70860    1.000
    C545     C        0.67102    0.39379    0.64190    1.000
    C546     C        0.68780    0.36940    0.69550    1.000
    H461     H        0.70420    0.35550    0.66780    1.000
    H462     H        0.67060    0.35410    0.71620    1.000
    Mn43     Mn       0.20752    0.32400    0.08161    1.000
    O127     O        0.23654    0.34674    0.01850    1.000
    O128     O        0.22998    0.24743    0.93488    1.000
    O129     O        0.18006    0.29381    0.14016    1.000
    N113     N        0.21553    0.28260    0.02909    1.000
    N114     N        0.19915    0.25395    0.05944    1.000
    C547     C        0.25103    0.33600    0.95710    1.000
    C548     C        0.27060    0.36017    0.91900    1.000
    H463     H        0.27480    0.38150    0.94050    1.000
    C549     C        0.28340    0.35207    0.84950    1.000
    H464     H        0.29660    0.36810    0.82360    1.000
    C550     C        0.27740    0.32091    0.81730    1.000
    H465     H        0.28440    0.31650    0.76790    1.000
    C551     C        0.26140    0.29691    0.85770    1.000
    H466     H        0.25990    0.27480    0.83830    1.000
    C552     C        0.24707    0.30391    0.92680    1.000
    C553     C        0.23025    0.27649    0.96500    1.000
    C554     C        0.18149    0.26299    0.11652    1.000
    C555     C        0.16094    0.23718    0.15640    1.000
    H467     H        0.17400    0.22780    0.19750    1.000
    H468     H        0.14050    0.24760    0.17580    1.000
    H469     H        0.15490    0.21920    0.12190    1.000
    Mn44     Mn       0.21741    0.20849    0.99692    1.000
    O130     O        0.17555    0.20001    0.95559    1.000
    O131     O        0.18364    0.13537    0.14163    1.000
    O132     O        0.26005    0.21052    0.04783    1.000
    N115     N        0.21121    0.17254    0.06806    1.000
    N116     N        0.23868    0.16711    0.11513    1.000
    N117     N        0.24300    0.17662    0.90950    1.000
    C556     C        0.15235    0.17732    0.97360    1.000
    C557     C        0.12434    0.17529    0.92780    1.000
    H470     H        0.12260    0.18970    0.88620    1.000
    C558     C        0.09889    0.15236    0.94230    1.000
    H471     H        0.08010    0.15110    0.91010    1.000
    C559     C        0.10083    0.13139    0.00320    1.000
    H472     H        0.08320    0.11620    0.01380    1.000
    C560     C        0.12862    0.13285    0.04830    1.000
    H473     H        0.13020    0.11820    0.08960    1.000
    C561     C        0.15479    0.15559    0.03450    1.000
    C562     C        0.18437    0.15436    0.08405    1.000
    C563     C        0.26289    0.18773    0.09890    1.000
    C564     C        0.29510    0.18497    0.13950    1.000
    H474     H        0.29480    0.20000    0.18240    1.000
    H475     H        0.29820    0.16180    0.15640    1.000
    H476     H        0.31360    0.19120    0.10650    1.000
    C565     C        0.27230    0.18828    0.87890    1.000
    H477     H        0.28030    0.20990    0.89170    1.000
    C566     C        0.29040    0.16860    0.82930    1.000
    H478     H        0.31070    0.17670    0.80840    1.000
    C567     C        0.23780    0.14622    0.89780    1.000
    H479     H        0.21970    0.13620    0.92370    1.000
    C568     C        0.25600    0.12583    0.85040    1.000
    H480     H        0.25090    0.10260    0.84870    1.000
    C569     C        0.27840    0.13661    0.81050    1.000
    C570     C        0.29550    0.11440    0.75430    1.000
    H481     H        0.27850    0.09920    0.73280    1.000
    H482     H        0.31200    0.10030    0.78080    1.000
    Mn45     Mn       0.27825    0.36226    0.28597    1.000
    O133     O        0.25827    0.40173    0.31530    1.000
    O134     O        0.19776    0.36484    0.13840    1.000
    O135     O        0.29273    0.31982    0.24558    1.000
    N118     N        0.24323    0.35487    0.21267    1.000
    N119     N        0.24566    0.32386    0.17460    1.000
    N120     N        0.36045    0.06190    0.54469    1.000
    C571     C        0.23310    0.41840    0.28430    1.000
    C572     C        0.22602    0.45054    0.31300    1.000
    H483     H        0.23920    0.45890    0.35270    1.000
    C573     C        0.20049    0.47010    0.28480    1.000
    H484     H        0.19600    0.49150    0.30580    1.000
    C574     C        0.18113    0.45853    0.22520    1.000
    H485     H        0.16370    0.47190    0.20520    1.000
    C575     C        0.18778    0.42787    0.19690    1.000
    H486     H        0.17480    0.42010    0.15630    1.000
    C576     C        0.21303    0.40726    0.22500    1.000
    C577     C        0.21790    0.37387    0.19010    1.000
    C578     C        0.27198    0.30782    0.19660    1.000
    C579     C        0.27886    0.27339    0.16750    1.000
    H487     H        0.29870    0.27400    0.13560    1.000
    H488     H        0.25950    0.26560    0.13870    1.000
    H489     H        0.28280    0.25810    0.20910    1.000
    C580     C        0.33152    0.07641    0.52750    1.000
    H490     H        0.32170    0.07140    0.48070    1.000
    C581     C        0.31494    0.09828    0.57350    1.000
    H491     H        0.29420    0.10780    0.55890    1.000
    C582     C        0.37286    0.06865    0.61180    1.000
    H492     H        0.39300    0.05780    0.62640    1.000
    C583     C        0.35810    0.09060    0.66160    1.000
    H493     H        0.36800    0.09470    0.70860    1.000
    C584     C        0.32898    0.10621    0.64190    1.000
    C585     C        0.31220    0.13060    0.69550    1.000
    H494     H        0.29580    0.14450    0.66780    1.000
    H495     H        0.32940    0.14590    0.71620    1.000
    Mn46     Mn       0.70752    0.82400    0.58161    1.000
    O136     O        0.73654    0.84674    0.51850    1.000
    O137     O        0.72998    0.74743    0.43488    1.000
    O138     O        0.68006    0.79381    0.64016    1.000
    N121     N        0.71553    0.78260    0.52909    1.000
    N122     N        0.69915    0.75395    0.55944    1.000
    C586     C        0.75103    0.83600    0.45710    1.000
    C587     C        0.77060    0.86017    0.41900    1.000
    H496     H        0.77480    0.88150    0.44050    1.000
    C588     C        0.78340    0.85207    0.34950    1.000
    H497     H        0.79660    0.86810    0.32360    1.000
    C589     C        0.77740    0.82091    0.31730    1.000
    H498     H        0.78440    0.81650    0.26790    1.000
    C590     C        0.76140    0.79691    0.35770    1.000
    H499     H        0.75990    0.77480    0.33830    1.000
    C591     C        0.74707    0.80391    0.42680    1.000
    C592     C        0.73025    0.77649    0.46500    1.000
    C593     C        0.68149    0.76299    0.61652    1.000
    C594     C        0.66094    0.73718    0.65640    1.000
    H500     H        0.67400    0.72780    0.69750    1.000
    H501     H        0.64050    0.74760    0.67580    1.000
    H502     H        0.65490    0.71920    0.62190    1.000
    Mn47     Mn       0.71741    0.70849    0.49692    1.000
    O139     O        0.67555    0.70001    0.45559    1.000
    O140     O        0.68364    0.63537    0.64163    1.000
    O141     O        0.76005    0.71052    0.54783    1.000
    N123     N        0.71121    0.67254    0.56806    1.000
    N124     N        0.73868    0.66711    0.61513    1.000
    N125     N        0.74300    0.67662    0.40950    1.000
    C595     C        0.65235    0.67732    0.47360    1.000
    C596     C        0.62434    0.67529    0.42780    1.000
    H503     H        0.62260    0.68970    0.38620    1.000
    C597     C        0.59889    0.65236    0.44230    1.000
    H504     H        0.58010    0.65110    0.41010    1.000
    C598     C        0.60083    0.63139    0.50320    1.000
    H505     H        0.58320    0.61620    0.51380    1.000
    C599     C        0.62862    0.63285    0.54830    1.000
    H506     H        0.63020    0.61820    0.58960    1.000
    C600     C        0.65479    0.65559    0.53450    1.000
    C601     C        0.68437    0.65436    0.58405    1.000
    C602     C        0.76289    0.68773    0.59890    1.000
    C603     C        0.79510    0.68497    0.63950    1.000
    H507     H        0.79480    0.70000    0.68240    1.000
    H508     H        0.79820    0.66180    0.65640    1.000
    H509     H        0.81360    0.69120    0.60650    1.000
    C604     C        0.77230    0.68828    0.37890    1.000
    H510     H        0.78030    0.70990    0.39170    1.000
    C605     C        0.79040    0.66860    0.32930    1.000
    H511     H        0.81070    0.67670    0.30840    1.000
    C606     C        0.73780    0.64622    0.39780    1.000
    H512     H        0.71970    0.63620    0.42370    1.000
    C607     C        0.75600    0.62583    0.35040    1.000
    H513     H        0.75090    0.60260    0.34870    1.000
    C608     C        0.77840    0.63661    0.31050    1.000
    C609     C        0.79550    0.61440    0.25430    1.000
    H514     H        0.77850    0.59920    0.23280    1.000
    H515     H        0.81200    0.60030    0.28080    1.000
    Mn48     Mn       0.77825    0.86226    0.78597    1.000
    O142     O        0.75827    0.90173    0.81530    1.000
    O143     O        0.69776    0.86484    0.63840    1.000
    O144     O        0.79273    0.81982    0.74558    1.000
    N126     N        0.74323    0.85487    0.71267    1.000
    N127     N        0.74566    0.82386    0.67460    1.000
    N128     N        0.86045    0.56190    0.04469    1.000
    C610     C        0.73310    0.91840    0.78430    1.000
    C611     C        0.72602    0.95054    0.81300    1.000
    H516     H        0.73920    0.95890    0.85270    1.000
    C612     C        0.70049    0.97010    0.78480    1.000
    H517     H        0.69600    0.99150    0.80580    1.000
    C613     C        0.68113    0.95853    0.72520    1.000
    H518     H        0.66370    0.97190    0.70520    1.000
    C614     C        0.68778    0.92787    0.69690    1.000
    H519     H        0.67480    0.92010    0.65630    1.000
    C615     C        0.71303    0.90726    0.72500    1.000
    C616     C        0.71790    0.87387    0.69010    1.000
    C617     C        0.77198    0.80782    0.69660    1.000
    C618     C        0.77886    0.77339    0.66750    1.000
    H520     H        0.79870    0.77400    0.63560    1.000
    H521     H        0.75950    0.76560    0.63870    1.000
    H522     H        0.78280    0.75810    0.70910    1.000
    C619     C        0.83152    0.57641    0.02750    1.000
    H523     H        0.82170    0.57140    0.98070    1.000
    C620     C        0.81494    0.59828    0.07350    1.000
    H524     H        0.79420    0.60780    0.05890    1.000
    C621     C        0.87286    0.56865    0.11180    1.000
    H525     H        0.89300    0.55780    0.12640    1.000
    C622     C        0.85810    0.59060    0.16160    1.000
    H526     H        0.86800    0.59470    0.20860    1.000
    C623     C        0.82898    0.60621    0.14190    1.000
    C624     C        0.81220    0.63060    0.19550    1.000
    H527     H        0.79580    0.64450    0.16780    1.000
    H528     H        0.82940    0.64590    0.21620    1.000
