# CIF file generated by openbabel 3.1.0, see https://openbabel.org
data_I
_chemical_name_common 'image0'
_cell_length_a 20.5308
_cell_length_b 9.1709
_cell_length_c 6.8801
_cell_angle_alpha 90
_cell_angle_beta 113.072
_cell_angle_gamma 90
_space_group_name_H-M_alt 'P 1'
_space_group_name_Hall 'P 1'
loop_
    _symmetry_equiv_pos_as_xyz
    x,y,z
loop_
    _atom_site_label
    _atom_site_type_symbol
    _atom_site_fract_x
    _atom_site_fract_y
    _atom_site_fract_z
    _atom_site_occupancy
    Fe1      Fe       0.00540    0.00380    0.95400    1.000
    O1       O        0.07140    0.12530    0.62410    1.000
    O2       O        0.08850    0.09730    0.95810    1.000
    O3       O        0.42010    0.36150    0.92670    1.000
    O4       O        0.43720    0.33350    0.26070    1.000
    C1       C        0.18580    0.18300    0.88290    1.000
    C2       C        0.21180    0.21500    0.73250    1.000
    C3       C        0.28030    0.26140    0.79200    1.000
    C4       C        0.32280    0.27580    0.00190    1.000
    C5       C        0.29680    0.24380    0.15230    1.000
    C6       C        0.22830    0.19740    0.09280    1.000
    C7       C        0.11170    0.13280    0.81870    1.000
    C8       C        0.39690    0.32600    0.06610    1.000
    H1       H        0.18140    0.20470    0.58230    1.000
    H2       H        0.29900    0.28430    0.68430    1.000
    H3       H        0.32720    0.25410    0.30250    1.000
    H4       H        0.20960    0.17450    0.20050    1.000
    O5       O        0.00670    0.90110    0.69600    1.000
    Fe2      Fe       0.50540    0.50380    0.95400    1.000
    O6       O        0.57140    0.62530    0.62410    1.000
    O7       O        0.58850    0.59730    0.95810    1.000
    O8       O        0.92010    0.86150    0.92670    1.000
    O9       O        0.93720    0.83350    0.26070    1.000
    C9       C        0.68580    0.68300    0.88290    1.000
    C10      C        0.71180    0.71500    0.73250    1.000
    C11      C        0.78030    0.76140    0.79200    1.000
    C12      C        0.82280    0.77580    0.00190    1.000
    C13      C        0.79680    0.74380    0.15230    1.000
    C14      C        0.72830    0.69740    0.09280    1.000
    C15      C        0.61170    0.63280    0.81870    1.000
    C16      C        0.89690    0.82600    0.06610    1.000
    H5       H        0.68140    0.70470    0.58230    1.000
    H6       H        0.79900    0.78430    0.68430    1.000
    H7       H        0.82720    0.75410    0.30250    1.000
    H8       H        0.70960    0.67450    0.20050    1.000
    O10      O        0.50670    0.40110    0.69600    1.000
    Fe3      Fe       0.00540    0.99620    0.45400    1.000
    O11      O        0.07140    0.87470    0.12410    1.000
    O12      O        0.08850    0.90270    0.45810    1.000
    O13      O        0.42010    0.63850    0.42670    1.000
    O14      O        0.43720    0.66650    0.76070    1.000
    C17      C        0.18580    0.81700    0.38290    1.000
    C18      C        0.21180    0.78500    0.23250    1.000
    C19      C        0.28030    0.73860    0.29200    1.000
    C20      C        0.32280    0.72420    0.50190    1.000
    C21      C        0.29680    0.75620    0.65230    1.000
    C22      C        0.22830    0.80260    0.59280    1.000
    C23      C        0.11170    0.86720    0.31870    1.000
    C24      C        0.39690    0.67400    0.56610    1.000
    H9       H        0.18140    0.79530    0.08230    1.000
    H10      H        0.29900    0.71570    0.18430    1.000
    H11      H        0.32720    0.74590    0.80250    1.000
    H12      H        0.20960    0.82550    0.70050    1.000
    O15      O        0.00670    0.09890    0.19600    1.000
    Fe4      Fe       0.50540    0.49620    0.45400    1.000
    O16      O        0.57140    0.37470    0.12410    1.000
    O17      O        0.58850    0.40270    0.45810    1.000
    O18      O        0.92010    0.13850    0.42670    1.000
    O19      O        0.93720    0.16650    0.76070    1.000
    C25      C        0.68580    0.31700    0.38290    1.000
    C26      C        0.71180    0.28500    0.23250    1.000
    C27      C        0.78030    0.23860    0.29200    1.000
    C28      C        0.82280    0.22420    0.50190    1.000
    C29      C        0.79680    0.25620    0.65230    1.000
    C30      C        0.72830    0.30260    0.59280    1.000
    C31      C        0.61170    0.36720    0.31870    1.000
    C32      C        0.89690    0.17400    0.56610    1.000
    H13      H        0.68140    0.29530    0.08230    1.000
    H14      H        0.79900    0.21570    0.18430    1.000
    H15      H        0.82720    0.24590    0.80250    1.000
    H16      H        0.70960    0.32550    0.70050    1.000
    O20      O        0.50670    0.59890    0.19600    1.000
