# CIF file generated by openbabel 3.1.0, see https://openbabel.org
data_I
_chemical_name_common 'image0'
_cell_length_a 7.1319
_cell_length_b 24.327
_cell_length_c 18.849
_cell_angle_alpha 90
_cell_angle_beta 90
_cell_angle_gamma 90
_space_group_name_H-M_alt 'P 1'
_space_group_name_Hall 'P 1'
loop_
    _symmetry_equiv_pos_as_xyz
    x,y,z
loop_
    _atom_site_label
    _atom_site_type_symbol
    _atom_site_fract_x
    _atom_site_fract_y
    _atom_site_fract_z
    _atom_site_occupancy
    Zn1      Zn       0.15675    0.08266    0.03783    1.000
    O1       O        0.21980    0.06990    0.17730    1.000
    O2       O        0.25270    0.01555    0.08480    1.000
    O3       O        0.25210    0.98930    0.42070    1.000
    O4       O        0.39940    0.90970    0.43520    1.000
    O5       O        0.30210    0.15129    0.04750    1.000
    O6       O        0.54550    0.10250    0.00680    1.000
    C1       C        0.30910    0.98440    0.27270    1.000
    H1       H        0.26610    0.01740    0.29160    1.000
    C2       C        0.26080    0.02440    0.15180    1.000
    C3       C        0.32140    0.97770    0.19900    1.000
    C4       C        0.38080    0.92740    0.17190    1.000
    H2       H        0.38260    0.92220    0.12310    1.000
    C5       C        0.50240    0.83070    0.18590    1.000
    H3       H        0.45520    0.82640    0.13850    1.000
    H4       H        0.63700    0.82980    0.18510    1.000
    H5       H        0.45650    0.80130    0.21520    1.000
    C6       C        0.43710    0.88530    0.21580    1.000
    C7       C        0.42900    0.89360    0.28910    1.000
    H6       H        0.47030    0.86600    0.31950    1.000
    C8       C        0.36090    0.94210    0.31720    1.000
    C9       C        0.33700    0.94830    0.39700    1.000
    C10      C        0.47000    0.14700    0.02230    1.000
    C11      C        0.57140    0.20010    0.00840    1.000
    C12      C        0.74910    0.20120    0.97670    1.000
    H7       H        0.80910    0.16820    0.96650    1.000
    H8       H        0.01130    0.26370    0.87570    1.000
    H9       H        0.07420    0.21320    0.92170    1.000
    H10      H        0.11130    0.27310    0.94880    1.000
    Zn2      Zn       0.34325    0.91734    0.53783    1.000
    O7       O        0.28020    0.93010    0.67730    1.000
    O8       O        0.24730    0.98445    0.58480    1.000
    O9       O        0.24790    0.01070    0.92070    1.000
    O10      O        0.10060    0.09030    0.93520    1.000
    O11      O        0.19790    0.84871    0.54750    1.000
    O12      O        0.95450    0.89750    0.50680    1.000
    C13      C        0.19090    0.01560    0.77270    1.000
    H11      H        0.23390    0.98260    0.79160    1.000
    C14      C        0.23920    0.97560    0.65180    1.000
    C15      C        0.17860    0.02230    0.69900    1.000
    C16      C        0.11920    0.07260    0.67190    1.000
    H12      H        0.11740    0.07780    0.62310    1.000
    C17      C        0.99760    0.16930    0.68590    1.000
    H13      H        0.04480    0.17360    0.63850    1.000
    H14      H        0.86300    0.17020    0.68510    1.000
    H15      H        0.04350    0.19870    0.71520    1.000
    C18      C        0.06290    0.11470    0.71580    1.000
    C19      C        0.07100    0.10640    0.78910    1.000
    H16      H        0.02970    0.13400    0.81950    1.000
    C20      C        0.13910    0.05790    0.81720    1.000
    C21      C        0.16300    0.05170    0.89700    1.000
    C22      C        0.03000    0.85300    0.52230    1.000
    C23      C        0.92860    0.79990    0.50840    1.000
    C24      C        0.75090    0.79880    0.47670    1.000
    H17      H        0.69090    0.83180    0.46650    1.000
    H18      H        0.48870    0.73630    0.37570    1.000
    H19      H        0.42580    0.78680    0.42170    1.000
    H20      H        0.38870    0.72690    0.44880    1.000
    Zn3      Zn       0.84325    0.58266    0.96217    1.000
    O13      O        0.78020    0.56990    0.82270    1.000
    O14      O        0.74730    0.51555    0.91520    1.000
    O15      O        0.74790    0.48930    0.57930    1.000
    O16      O        0.60060    0.40970    0.56480    1.000
    O17      O        0.69790    0.65129    0.95250    1.000
    O18      O        0.45450    0.60250    0.99320    1.000
    C25      C        0.69090    0.48440    0.72730    1.000
    H21      H        0.73390    0.51740    0.70840    1.000
    C26      C        0.73920    0.52440    0.84820    1.000
    C27      C        0.67860    0.47770    0.80100    1.000
    C28      C        0.61920    0.42740    0.82810    1.000
    H22      H        0.61740    0.42220    0.87690    1.000
    C29      C        0.49760    0.33070    0.81410    1.000
    H23      H        0.54480    0.32640    0.86150    1.000
    H24      H        0.36300    0.32980    0.81490    1.000
    H25      H        0.54350    0.30130    0.78480    1.000
    C30      C        0.56290    0.38530    0.78420    1.000
    C31      C        0.57100    0.39360    0.71090    1.000
    H26      H        0.52970    0.36600    0.68050    1.000
    C32      C        0.63910    0.44210    0.68280    1.000
    C33      C        0.66300    0.44830    0.60300    1.000
    C34      C        0.53000    0.64700    0.97770    1.000
    C35      C        0.42860    0.70010    0.99160    1.000
    C36      C        0.25090    0.70120    0.02330    1.000
    H27      H        0.19090    0.66820    0.03350    1.000
    H28      H        0.98870    0.76370    0.12430    1.000
    H29      H        0.92580    0.71320    0.07830    1.000
    H30      H        0.88870    0.77310    0.05120    1.000
    Zn4      Zn       0.65675    0.41734    0.46217    1.000
    O19      O        0.71980    0.43010    0.32270    1.000
    O20      O        0.75270    0.48445    0.41520    1.000
    O21      O        0.75210    0.51070    0.07930    1.000
    O22      O        0.89940    0.59030    0.06480    1.000
    O23      O        0.80210    0.34871    0.45250    1.000
    O24      O        0.04550    0.39750    0.49320    1.000
    C37      C        0.80910    0.51560    0.22730    1.000
    H31      H        0.76610    0.48260    0.20840    1.000
    C38      C        0.76080    0.47560    0.34820    1.000
    C39      C        0.82140    0.52230    0.30100    1.000
    C40      C        0.88080    0.57260    0.32810    1.000
    H32      H        0.88260    0.57780    0.37690    1.000
    C41      C        0.00240    0.66930    0.31410    1.000
    H33      H        0.95520    0.67360    0.36150    1.000
    H34      H        0.13700    0.67020    0.31490    1.000
    H35      H        0.95650    0.69870    0.28480    1.000
    C42      C        0.93710    0.61470    0.28420    1.000
    C43      C        0.92900    0.60640    0.21090    1.000
    H36      H        0.97030    0.63400    0.18050    1.000
    C44      C        0.86090    0.55790    0.18280    1.000
    C45      C        0.83700    0.55170    0.10300    1.000
    C46      C        0.97000    0.35300    0.47770    1.000
    C47      C        0.07140    0.29990    0.49160    1.000
    C48      C        0.24910    0.29880    0.52330    1.000
    H37      H        0.30910    0.33180    0.53350    1.000
    H38      H        0.51130    0.23630    0.62430    1.000
    H39      H        0.57420    0.28680    0.57830    1.000
    H40      H        0.61130    0.22690    0.55120    1.000
    Zn5      Zn       0.84325    0.91734    0.96217    1.000
    O25      O        0.78020    0.93010    0.82270    1.000
    O26      O        0.74730    0.98445    0.91520    1.000
    O27      O        0.74790    0.01070    0.57930    1.000
    O28      O        0.60060    0.09030    0.56480    1.000
    O29      O        0.69790    0.84871    0.95250    1.000
    O30      O        0.45450    0.89750    0.99320    1.000
    C49      C        0.69090    0.01560    0.72730    1.000
    H41      H        0.73390    0.98260    0.70840    1.000
    C50      C        0.73920    0.97560    0.84820    1.000
    C51      C        0.67860    0.02230    0.80100    1.000
    C52      C        0.61920    0.07260    0.82810    1.000
    H42      H        0.61740    0.07780    0.87690    1.000
    C53      C        0.49760    0.16930    0.81410    1.000
    H43      H        0.54480    0.17360    0.86150    1.000
    H44      H        0.36300    0.17020    0.81490    1.000
    H45      H        0.54350    0.19870    0.78480    1.000
    C54      C        0.56290    0.11470    0.78420    1.000
    C55      C        0.57100    0.10640    0.71090    1.000
    H46      H        0.52970    0.13400    0.68050    1.000
    C56      C        0.63910    0.05790    0.68280    1.000
    C57      C        0.66300    0.05170    0.60300    1.000
    C58      C        0.53000    0.85300    0.97770    1.000
    C59      C        0.42860    0.79990    0.99160    1.000
    C60      C        0.25090    0.79880    0.02330    1.000
    H47      H        0.19090    0.83180    0.03350    1.000
    H48      H        0.98870    0.73630    0.12430    1.000
    H49      H        0.92580    0.78680    0.07830    1.000
    H50      H        0.88870    0.72690    0.05120    1.000
    Zn6      Zn       0.65675    0.08266    0.46217    1.000
    O31      O        0.71980    0.06990    0.32270    1.000
    O32      O        0.75270    0.01555    0.41520    1.000
    O33      O        0.75210    0.98930    0.07930    1.000
    O34      O        0.89940    0.90970    0.06480    1.000
    O35      O        0.80210    0.15129    0.45250    1.000
    O36      O        0.04550    0.10250    0.49320    1.000
    C61      C        0.80910    0.98440    0.22730    1.000
    H51      H        0.76610    0.01740    0.20840    1.000
    C62      C        0.76080    0.02440    0.34820    1.000
    C63      C        0.82140    0.97770    0.30100    1.000
    C64      C        0.88080    0.92740    0.32810    1.000
    H52      H        0.88260    0.92220    0.37690    1.000
    C65      C        0.00240    0.83070    0.31410    1.000
    H53      H        0.95520    0.82640    0.36150    1.000
    H54      H        0.13700    0.82980    0.31490    1.000
    H55      H        0.95650    0.80130    0.28480    1.000
    C66      C        0.93710    0.88530    0.28420    1.000
    C67      C        0.92900    0.89360    0.21090    1.000
    H56      H        0.97030    0.86600    0.18050    1.000
    C68      C        0.86090    0.94210    0.18280    1.000
    C69      C        0.83700    0.94830    0.10300    1.000
    C70      C        0.97000    0.14700    0.47770    1.000
    C71      C        0.07140    0.20010    0.49160    1.000
    C72      C        0.24910    0.20120    0.52330    1.000
    H57      H        0.30910    0.16820    0.53350    1.000
    H58      H        0.51130    0.26370    0.62430    1.000
    H59      H        0.57420    0.21320    0.57830    1.000
    H60      H        0.61130    0.27310    0.55120    1.000
    Zn7      Zn       0.15675    0.41734    0.03783    1.000
    O37      O        0.21980    0.43010    0.17730    1.000
    O38      O        0.25270    0.48445    0.08480    1.000
    O39      O        0.25210    0.51070    0.42070    1.000
    O40      O        0.39940    0.59030    0.43520    1.000
    O41      O        0.30210    0.34871    0.04750    1.000
    O42      O        0.54550    0.39750    0.00680    1.000
    C73      C        0.30910    0.51560    0.27270    1.000
    H61      H        0.26610    0.48260    0.29160    1.000
    C74      C        0.26080    0.47560    0.15180    1.000
    C75      C        0.32140    0.52230    0.19900    1.000
    C76      C        0.38080    0.57260    0.17190    1.000
    H62      H        0.38260    0.57780    0.12310    1.000
    C77      C        0.50240    0.66930    0.18590    1.000
    H63      H        0.45520    0.67360    0.13850    1.000
    H64      H        0.63700    0.67020    0.18510    1.000
    H65      H        0.45650    0.69870    0.21520    1.000
    C78      C        0.43710    0.61470    0.21580    1.000
    C79      C        0.42900    0.60640    0.28910    1.000
    H66      H        0.47030    0.63400    0.31950    1.000
    C80      C        0.36090    0.55790    0.31720    1.000
    C81      C        0.33700    0.55170    0.39700    1.000
    C82      C        0.47000    0.35300    0.02230    1.000
    C83      C        0.57140    0.29990    0.00840    1.000
    C84      C        0.74910    0.29880    0.97670    1.000
    H67      H        0.80910    0.33180    0.96650    1.000
    H68      H        0.01130    0.23630    0.87570    1.000
    H69      H        0.07420    0.28680    0.92170    1.000
    H70      H        0.11130    0.22690    0.94880    1.000
    Zn8      Zn       0.34325    0.58266    0.53783    1.000
    O43      O        0.28020    0.56990    0.67730    1.000
    O44      O        0.24730    0.51555    0.58480    1.000
    O45      O        0.24790    0.48930    0.92070    1.000
    O46      O        0.10060    0.40970    0.93520    1.000
    O47      O        0.19790    0.65129    0.54750    1.000
    O48      O        0.95450    0.60250    0.50680    1.000
    C85      C        0.19090    0.48440    0.77270    1.000
    H71      H        0.23390    0.51740    0.79160    1.000
    C86      C        0.23920    0.52440    0.65180    1.000
    C87      C        0.17860    0.47770    0.69900    1.000
    C88      C        0.11920    0.42740    0.67190    1.000
    H72      H        0.11740    0.42220    0.62310    1.000
    C89      C        0.99760    0.33070    0.68590    1.000
    H73      H        0.04480    0.32640    0.63850    1.000
    H74      H        0.86300    0.32980    0.68510    1.000
    H75      H        0.04350    0.30130    0.71520    1.000
    C90      C        0.06290    0.38530    0.71580    1.000
    C91      C        0.07100    0.39360    0.78910    1.000
    H76      H        0.02970    0.36600    0.81950    1.000
    C92      C        0.13910    0.44210    0.81720    1.000
    C93      C        0.16300    0.44830    0.89700    1.000
    C94      C        0.03000    0.64700    0.52230    1.000
    C95      C        0.92860    0.70010    0.50840    1.000
    C96      C        0.75090    0.70120    0.47670    1.000
    H77      H        0.69090    0.66820    0.46650    1.000
    H78      H        0.48870    0.76370    0.37570    1.000
    H79      H        0.42580    0.71320    0.42170    1.000
    H80      H        0.38870    0.77310    0.44880    1.000
    Na1      Na       0.50000    0.00000    0.00000    1.000
    Na2      Na       0.00000    0.00000    0.50000    1.000
    Na3      Na       0.50000    0.50000    0.00000    1.000
    Na4      Na       0.00000    0.50000    0.50000    1.000
    C97      C        0.48480    0.25000    0.02420    1.000
    H81      H        0.36740    0.25000    0.04570    1.000
    C98      C        0.83690    0.25000    0.96020    1.000
    C99      C        0.02580    0.25000    0.92320    1.000
    C100     C        0.01520    0.75000    0.52420    1.000
    H82      H        0.13260    0.75000    0.54570    1.000
    C101     C        0.66310    0.75000    0.46020    1.000
    C102     C        0.47420    0.75000    0.42320    1.000
    C103     C        0.51520    0.75000    0.97580    1.000
    H83      H        0.63260    0.75000    0.95430    1.000
    C104     C        0.16310    0.75000    0.03980    1.000
    C105     C        0.97420    0.75000    0.07680    1.000
    C106     C        0.98480    0.25000    0.47580    1.000
    H84      H        0.86740    0.25000    0.45430    1.000
    C107     C        0.33690    0.25000    0.53980    1.000
    C108     C        0.52580    0.25000    0.57680    1.000
