# CIF file generated by openbabel 3.1.0, see https://openbabel.org
data_I
_chemical_name_common 'image0'
_cell_length_a 9.267
_cell_length_b 19.041
_cell_length_c 8.292
_cell_angle_alpha 90
_cell_angle_beta 111.164
_cell_angle_gamma 90
_space_group_name_H-M_alt 'P 1'
_space_group_name_Hall 'P 1'
loop_
    _symmetry_equiv_pos_as_xyz
    x,y,z
loop_
    _atom_site_label
    _atom_site_type_symbol
    _atom_site_fract_x
    _atom_site_fract_y
    _atom_site_fract_z
    _atom_site_occupancy
    Zn1      Zn       0.30240    0.46983    0.83751    1.000
    O1       O        0.06060    0.39720    0.97020    1.000
    O2       O        0.23280    0.37240    0.84080    1.000
    O3       O        0.78710    0.04960    0.83060    1.000
    O4       O        0.98170    0.02070    0.74730    1.000
    N1       N        0.23680    0.52910    0.13910    1.000
    N2       N        0.35140    0.51710    0.07680    1.000
    N3       N        0.48800    0.54170    0.19110    1.000
    C1       C        0.12860    0.35500    0.90440    1.000
    C2       C        0.08750    0.27760    0.89930    1.000
    C3       C        0.95070    0.25880    0.93030    1.000
    H1       H        0.89400    0.29310    0.96120    1.000
    C4       C        0.90200    0.18880    0.91400    1.000
    H2       H        0.81340    0.17690    0.93560    1.000
    C5       C        0.98390    0.13690    0.86600    1.000
    C6       C        0.12570    0.15490    0.84570    1.000
    H3       H        0.18570    0.12000    0.82240    1.000
    C7       C        0.17450    0.22460    0.86090    1.000
    H4       H        0.26610    0.23600    0.84520    1.000
    C8       C        0.91780    0.06440    0.81620    1.000
    C9       C        0.30260    0.56070    0.29320    1.000
    H5       H        0.25120    0.57450    0.36580    1.000
    C10      C        0.45790    0.56930    0.32640    1.000
    H6       H        0.52930    0.59020    0.42390    1.000
    Zn2      Zn       0.69760    0.96983    0.66249    1.000
    O5       O        0.93940    0.89720    0.52980    1.000
    O6       O        0.76720    0.87240    0.65920    1.000
    O7       O        0.21290    0.54960    0.66940    1.000
    O8       O        0.01830    0.52070    0.75270    1.000
    N4       N        0.76320    0.02910    0.36090    1.000
    N5       N        0.64860    0.01710    0.42320    1.000
    N6       N        0.51200    0.04170    0.30890    1.000
    C11      C        0.87140    0.85500    0.59560    1.000
    C12      C        0.91250    0.77760    0.60070    1.000
    C13      C        0.04930    0.75880    0.56970    1.000
    H7       H        0.10600    0.79310    0.53880    1.000
    C14      C        0.09800    0.68880    0.58600    1.000
    H8       H        0.18660    0.67690    0.56440    1.000
    C15      C        0.01610    0.63690    0.63400    1.000
    C16      C        0.87430    0.65490    0.65430    1.000
    H9       H        0.81430    0.62000    0.67760    1.000
    C17      C        0.82550    0.72460    0.63910    1.000
    H10      H        0.73390    0.73600    0.65480    1.000
    C18      C        0.08220    0.56440    0.68380    1.000
    C19      C        0.69740    0.06070    0.20680    1.000
    H11      H        0.74880    0.07450    0.13420    1.000
    C20      C        0.54210    0.06930    0.17360    1.000
    H12      H        0.47070    0.09020    0.07610    1.000
    Zn3      Zn       0.69760    0.53017    0.16249    1.000
    O9       O        0.93940    0.60280    0.02980    1.000
    O10      O        0.76720    0.62760    0.15920    1.000
    O11      O        0.21290    0.95040    0.16940    1.000
    O12      O        0.01830    0.97930    0.25270    1.000
    N7       N        0.76320    0.47090    0.86090    1.000
    N8       N        0.64860    0.48290    0.92320    1.000
    N9       N        0.51200    0.45830    0.80890    1.000
    C21      C        0.87140    0.64500    0.09560    1.000
    C22      C        0.91250    0.72240    0.10070    1.000
    C23      C        0.04930    0.74120    0.06970    1.000
    H13      H        0.10600    0.70690    0.03880    1.000
    C24      C        0.09800    0.81120    0.08600    1.000
    H14      H        0.18660    0.82310    0.06440    1.000
    C25      C        0.01610    0.86310    0.13400    1.000
    C26      C        0.87430    0.84510    0.15430    1.000
    H15      H        0.81430    0.88000    0.17760    1.000
    C27      C        0.82550    0.77540    0.13910    1.000
    H16      H        0.73390    0.76400    0.15480    1.000
    C28      C        0.08220    0.93560    0.18380    1.000
    C29      C        0.69740    0.43930    0.70680    1.000
    H17      H        0.74880    0.42550    0.63420    1.000
    C30      C        0.54210    0.43070    0.67360    1.000
    H18      H        0.47070    0.40980    0.57610    1.000
    Zn4      Zn       0.30240    0.03017    0.33751    1.000
    O13      O        0.06060    0.10280    0.47020    1.000
    O14      O        0.23280    0.12760    0.34080    1.000
    O15      O        0.78710    0.45040    0.33060    1.000
    O16      O        0.98170    0.47930    0.24730    1.000
    N10      N        0.23680    0.97090    0.63910    1.000
    N11      N        0.35140    0.98290    0.57680    1.000
    N12      N        0.48800    0.95830    0.69110    1.000
    C31      C        0.12860    0.14500    0.40440    1.000
    C32      C        0.08750    0.22240    0.39930    1.000
    C33      C        0.95070    0.24120    0.43030    1.000
    H19      H        0.89400    0.20690    0.46120    1.000
    C34      C        0.90200    0.31120    0.41400    1.000
    H20      H        0.81340    0.32310    0.43560    1.000
    C35      C        0.98390    0.36310    0.36600    1.000
    C36      C        0.12570    0.34510    0.34570    1.000
    H21      H        0.18570    0.38000    0.32240    1.000
    C37      C        0.17450    0.27540    0.36090    1.000
    H22      H        0.26610    0.26400    0.34520    1.000
    C38      C        0.91780    0.43560    0.31620    1.000
    C39      C        0.30260    0.93930    0.79320    1.000
    H23      H        0.25120    0.92550    0.86580    1.000
    C40      C        0.45790    0.93070    0.82640    1.000
    H24      H        0.52930    0.90980    0.92390    1.000
    Zn5      Zn       0.00000    0.50000    0.00000    1.000
    Zn6      Zn       0.00000    0.00000    0.50000    1.000
