# CIF file generated by openbabel 3.1.0, see https://openbabel.org
data_I
_chemical_name_common 'image0'
_cell_length_a 18.1935
_cell_length_b 18.5759
_cell_length_c 20.2044
_cell_angle_alpha 90
_cell_angle_beta 90
_cell_angle_gamma 90
_space_group_name_H-M_alt 'P 1'
_space_group_name_Hall 'P 1'
loop_
    _symmetry_equiv_pos_as_xyz
    x,y,z
loop_
    _atom_site_label
    _atom_site_type_symbol
    _atom_site_fract_x
    _atom_site_fract_y
    _atom_site_fract_z
    _atom_site_occupancy
    Ag1      Ag       0.33750    0.35848    0.65273    1.000
    Si1      Si       0.95402    0.32993    0.63028    1.000
    Si2      Si       0.47450    0.17280    0.92781    1.000
    N1       N        0.21080    0.35370    0.64010    1.000
    N2       N        0.88350    0.21970    0.43060    1.000
    N3       N        0.37400    0.29190    0.74440    1.000
    N4       N        0.60230    0.96450    0.86020    1.000
    C1       C        0.83620    0.25580    0.46870    1.000
    H1       H        0.78650    0.25970    0.45460    1.000
    C2       C        0.85640    0.28800    0.52830    1.000
    H2       H        0.82010    0.30990    0.55540    1.000
    C3       C        0.92780    0.28820    0.54750    1.000
    C4       C        0.97590    0.25410    0.50910    1.000
    H3       H        0.02610    0.25200    0.52210    1.000
    C5       C        0.95400    0.22120    0.44970    1.000
    H4       H        0.99020    0.19950    0.42240    1.000
    C6       C        0.92020    0.27070    0.69910    1.000
    H5       H        0.88580    0.23320    0.68300    1.000
    H6       H        0.96100    0.24790    0.72370    1.000
    C7       C        0.87840    0.33220    0.74300    1.000
    H7       H        0.83080    0.31220    0.75810    1.000
    H8       H        0.90840    0.34170    0.78300    1.000
    C8       C        0.86490    0.39730    0.71210    1.000
    H9       H        0.87660    0.43610    0.74400    1.000
    H10      H        0.81150    0.40010    0.70290    1.000
    C9       C        0.90480    0.41310    0.64930    1.000
    H11      H        0.93950    0.45360    0.65530    1.000
    H12      H        0.86980    0.42540    0.61340    1.000
    C10      C        0.05650    0.33890    0.63340    1.000
    C11      C        0.10320    0.28150    0.63840    1.000
    H13      H        0.08340    0.23410    0.63830    1.000
    C12      C        0.17820    0.29040    0.64380    1.000
    H14      H        0.20790    0.24900    0.65050    1.000
    C13      C        0.16600    0.41110    0.63180    1.000
    H15      H        0.18800    0.45730    0.62900    1.000
    C14      C        0.09350    0.40700    0.62730    1.000
    H16      H        0.06560    0.44950    0.62000    1.000
    C15      C        0.42980    0.24680    0.73860    1.000
    H17      H        0.45310    0.24030    0.69700    1.000
    C16      C        0.45470    0.20820    0.79500    1.000
    H18      H        0.49090    0.17210    0.78830    1.000
    C17      C        0.43290    0.21810    0.85150    1.000
    C18      C        0.37710    0.26660    0.85860    1.000
    H19      H        0.35730    0.27750    0.90090    1.000
    C19      C        0.35040    0.29880    0.80260    1.000
    H20      H        0.30950    0.33000    0.80830    1.000
    C20      C        0.40470    0.14740    0.99220    1.000
    H21      H        0.36610    0.18480    0.99490    1.000
    H22      H        0.38100    0.10120    0.98010    1.000
    C21      C        0.44140    0.14040    0.05540    1.000
    H23      H        0.40530    0.12780    0.08950    1.000
    H24      H        0.46490    0.18620    0.06690    1.000
    H25      H        0.47880    0.10260    0.05260    1.000
    C22      C        0.54020    0.23760    0.96540    1.000
    H26      H        0.51040    0.27010    0.99350    1.000
    H27      H        0.57120    0.20910    0.99600    1.000
    C23      C        0.59080    0.28420    0.92810    1.000
    H28      H        0.61820    0.31470    0.95900    1.000
    H29      H        0.56260    0.31460    0.89760    1.000
    H30      H        0.62520    0.25430    0.90280    1.000
    C24      C        0.52370    0.09000    0.89990    1.000
    C25      C        0.59810    0.08760    0.88430    1.000
    H31      H        0.62570    0.13090    0.88680    1.000
    C26      C        0.63240    0.02780    0.86600    1.000
    H32      H        0.68340    0.03150    0.85630    1.000
    C27      C        0.53180    0.96330    0.87350    1.000
    H33      H        0.50660    0.91860    0.87030    1.000
    C28      C        0.49070    0.02600    0.89270    1.000
    H34      H        0.43930    0.02190    0.90030    1.000
    Ag2      Ag       0.16250    0.64152    0.15273    1.000
    Si3      Si       0.54598    0.67007    0.13028    1.000
    Si4      Si       0.02550    0.82720    0.42781    1.000
    N5       N        0.28920    0.64630    0.14010    1.000
    N6       N        0.61650    0.78030    0.93060    1.000
    N7       N        0.12600    0.70810    0.24440    1.000
    N8       N        0.89770    0.03550    0.36020    1.000
    C29      C        0.66380    0.74420    0.96870    1.000
    H35      H        0.71350    0.74030    0.95460    1.000
    C30      C        0.64360    0.71200    0.02830    1.000
    H36      H        0.67990    0.69010    0.05540    1.000
    C31      C        0.57220    0.71180    0.04750    1.000
    C32      C        0.52410    0.74590    0.00910    1.000
    H37      H        0.47390    0.74800    0.02210    1.000
    C33      C        0.54600    0.77880    0.94970    1.000
    H38      H        0.50980    0.80050    0.92240    1.000
    C34      C        0.57980    0.72930    0.19910    1.000
    H39      H        0.61420    0.76680    0.18300    1.000
    H40      H        0.53900    0.75210    0.22370    1.000
    C35      C        0.62160    0.66780    0.24300    1.000
    H41      H        0.66920    0.68780    0.25810    1.000
    H42      H        0.59160    0.65830    0.28300    1.000
    C36      C        0.63510    0.60270    0.21210    1.000
    H43      H        0.62340    0.56390    0.24400    1.000
    H44      H        0.68850    0.59990    0.20290    1.000
    C37      C        0.59520    0.58690    0.14930    1.000
    H45      H        0.56050    0.54640    0.15530    1.000
    H46      H        0.63020    0.57460    0.11340    1.000
    C38      C        0.44350    0.66110    0.13340    1.000
    C39      C        0.39680    0.71850    0.13840    1.000
    H47      H        0.41660    0.76590    0.13830    1.000
    C40      C        0.32180    0.70960    0.14380    1.000
    H48      H        0.29210    0.75100    0.15050    1.000
    C41      C        0.33400    0.58890    0.13180    1.000
    H49      H        0.31200    0.54270    0.12900    1.000
    C42      C        0.40650    0.59300    0.12730    1.000
    H50      H        0.43440    0.55050    0.12000    1.000
    C43      C        0.07020    0.75320    0.23860    1.000
    H51      H        0.04690    0.75970    0.19700    1.000
    C44      C        0.04530    0.79180    0.29500    1.000
    H52      H        0.00910    0.82790    0.28830    1.000
    C45      C        0.06710    0.78190    0.35150    1.000
    C46      C        0.12290    0.73340    0.35860    1.000
    H53      H        0.14270    0.72250    0.40090    1.000
    C47      C        0.14960    0.70120    0.30260    1.000
    H54      H        0.19050    0.67000    0.30830    1.000
    C48      C        0.09530    0.85260    0.49220    1.000
    H55      H        0.13390    0.81520    0.49490    1.000
    H56      H        0.11900    0.89880    0.48010    1.000
    C49      C        0.05860    0.85960    0.55540    1.000
    H57      H        0.09470    0.87220    0.58950    1.000
    H58      H        0.03510    0.81380    0.56690    1.000
    H59      H        0.02120    0.89740    0.55260    1.000
    C50      C        0.95980    0.76240    0.46540    1.000
    H60      H        0.98960    0.72990    0.49350    1.000
    H61      H        0.92880    0.79090    0.49600    1.000
    C51      C        0.90920    0.71580    0.42810    1.000
    H62      H        0.88180    0.68530    0.45900    1.000
    H63      H        0.93740    0.68540    0.39760    1.000
    H64      H        0.87480    0.74570    0.40280    1.000
    C52      C        0.97630    0.91000    0.39990    1.000
    C53      C        0.90190    0.91240    0.38430    1.000
    H65      H        0.87430    0.86910    0.38680    1.000
    C54      C        0.86760    0.97220    0.36600    1.000
    H66      H        0.81660    0.96850    0.35630    1.000
    C55      C        0.96820    0.03670    0.37350    1.000
    H67      H        0.99340    0.08140    0.37030    1.000
    C56      C        0.00930    0.97400    0.39270    1.000
    H68      H        0.06070    0.97810    0.40030    1.000
    Ag3      Ag       0.66250    0.85848    0.84727    1.000
    Si5      Si       0.04598    0.82993    0.86972    1.000
    Si6      Si       0.52550    0.67280    0.57219    1.000
    N9       N        0.78920    0.85370    0.85990    1.000
    N10      N        0.11650    0.71970    0.06940    1.000
    N11      N        0.62600    0.79190    0.75560    1.000
    N12      N        0.39770    0.46450    0.63980    1.000
    C57      C        0.16380    0.75580    0.03130    1.000
    H69      H        0.21350    0.75970    0.04540    1.000
    C58      C        0.14360    0.78800    0.97170    1.000
    H70      H        0.17990    0.80990    0.94460    1.000
    C59      C        0.07220    0.78820    0.95250    1.000
    C60      C        0.02410    0.75410    0.99090    1.000
    H71      H        0.97390    0.75200    0.97790    1.000
    C61      C        0.04600    0.72120    0.05030    1.000
    H72      H        0.00980    0.69950    0.07760    1.000
    C62      C        0.07980    0.77070    0.80090    1.000
    H73      H        0.11420    0.73320    0.81700    1.000
    H74      H        0.03900    0.74790    0.77630    1.000
    C63      C        0.12160    0.83220    0.75700    1.000
    H75      H        0.16920    0.81220    0.74190    1.000
    H76      H        0.09160    0.84170    0.71700    1.000
    C64      C        0.13510    0.89730    0.78790    1.000
    H77      H        0.12340    0.93610    0.75600    1.000
    H78      H        0.18850    0.90010    0.79710    1.000
    C65      C        0.09520    0.91310    0.85070    1.000
    H79      H        0.06050    0.95360    0.84470    1.000
    H80      H        0.13020    0.92540    0.88660    1.000
    C66      C        0.94350    0.83890    0.86660    1.000
    C67      C        0.89680    0.78150    0.86160    1.000
    H81      H        0.91660    0.73410    0.86170    1.000
    C68      C        0.82180    0.79040    0.85620    1.000
    H82      H        0.79210    0.74900    0.84950    1.000
    C69      C        0.83400    0.91110    0.86820    1.000
    H83      H        0.81200    0.95730    0.87100    1.000
    C70      C        0.90650    0.90700    0.87270    1.000
    H84      H        0.93440    0.94950    0.88000    1.000
    C71      C        0.57020    0.74680    0.76140    1.000
    H85      H        0.54690    0.74030    0.80300    1.000
    C72      C        0.54530    0.70820    0.70500    1.000
    H86      H        0.50910    0.67210    0.71170    1.000
    C73      C        0.56710    0.71810    0.64850    1.000
    C74      C        0.62290    0.76660    0.64140    1.000
    H87      H        0.64270    0.77750    0.59910    1.000
    C75      C        0.64960    0.79880    0.69740    1.000
    H88      H        0.69050    0.83000    0.69170    1.000
    C76      C        0.59530    0.64740    0.50780    1.000
    H89      H        0.63390    0.68480    0.50510    1.000
    H90      H        0.61900    0.60120    0.51990    1.000
    C77      C        0.55860    0.64040    0.44460    1.000
    H91      H        0.59470    0.62780    0.41050    1.000
    H92      H        0.53510    0.68620    0.43310    1.000
    H93      H        0.52120    0.60260    0.44740    1.000
    C78      C        0.45980    0.73760    0.53460    1.000
    H94      H        0.48960    0.77010    0.50650    1.000
    H95      H        0.42880    0.70910    0.50400    1.000
    C79      C        0.40920    0.78420    0.57190    1.000
    H96      H        0.38180    0.81470    0.54100    1.000
    H97      H        0.43740    0.81460    0.60240    1.000
    H98      H        0.37480    0.75430    0.59720    1.000
    C80      C        0.47630    0.59000    0.60010    1.000
    C81      C        0.40190    0.58760    0.61570    1.000
    H99      H        0.37430    0.63090    0.61320    1.000
    C82      C        0.36760    0.52780    0.63400    1.000
    H100     H        0.31660    0.53150    0.64370    1.000
    C83      C        0.46820    0.46330    0.62650    1.000
    H101     H        0.49340    0.41860    0.62970    1.000
    C84      C        0.50930    0.52600    0.60730    1.000
    H102     H        0.56070    0.52190    0.59970    1.000
    Ag4      Ag       0.83750    0.14152    0.34727    1.000
    Si7      Si       0.45402    0.17007    0.36972    1.000
    Si8      Si       0.97450    0.32720    0.07219    1.000
    N13      N        0.71080    0.14630    0.35990    1.000
    N14      N        0.38350    0.28030    0.56940    1.000
    N15      N        0.87400    0.20810    0.25560    1.000
    N16      N        0.10230    0.53550    0.13980    1.000
    C85      C        0.33620    0.24420    0.53130    1.000
    H103     H        0.28650    0.24030    0.54540    1.000
    C86      C        0.35640    0.21200    0.47170    1.000
    H104     H        0.32010    0.19010    0.44460    1.000
    C87      C        0.42780    0.21180    0.45250    1.000
    C88      C        0.47590    0.24590    0.49090    1.000
    H105     H        0.52610    0.24800    0.47790    1.000
    C89      C        0.45400    0.27880    0.55030    1.000
    H106     H        0.49020    0.30050    0.57760    1.000
    C90      C        0.42020    0.22930    0.30090    1.000
    H107     H        0.38580    0.26680    0.31700    1.000
    H108     H        0.46100    0.25210    0.27630    1.000
    C91      C        0.37840    0.16780    0.25700    1.000
    H109     H        0.33080    0.18780    0.24190    1.000
    H110     H        0.40840    0.15830    0.21700    1.000
    C92      C        0.36490    0.10270    0.28790    1.000
    H111     H        0.37660    0.06390    0.25600    1.000
    H112     H        0.31150    0.09990    0.29710    1.000
    C93      C        0.40480    0.08690    0.35070    1.000
    H113     H        0.43950    0.04640    0.34470    1.000
    H114     H        0.36980    0.07460    0.38660    1.000
    C94      C        0.55650    0.16110    0.36660    1.000
    C95      C        0.60320    0.21850    0.36160    1.000
    H115     H        0.58340    0.26590    0.36170    1.000
    C96      C        0.67820    0.20960    0.35620    1.000
    H116     H        0.70790    0.25100    0.34950    1.000
    C97      C        0.66600    0.08890    0.36820    1.000
    H117     H        0.68800    0.04270    0.37100    1.000
    C98      C        0.59350    0.09300    0.37270    1.000
    H118     H        0.56560    0.05050    0.38000    1.000
    C99      C        0.92980    0.25320    0.26140    1.000
    H119     H        0.95310    0.25970    0.30300    1.000
    C100     C        0.95470    0.29180    0.20500    1.000
    H120     H        0.99090    0.32790    0.21170    1.000
    C101     C        0.93290    0.28190    0.14850    1.000
    C102     C        0.87710    0.23340    0.14140    1.000
    H121     H        0.85730    0.22250    0.09910    1.000
    C103     C        0.85040    0.20120    0.19740    1.000
    H122     H        0.80950    0.17000    0.19170    1.000
    C104     C        0.90470    0.35260    0.00780    1.000
    H123     H        0.86610    0.31520    0.00510    1.000
    H124     H        0.88100    0.39880    0.01990    1.000
    C105     C        0.94140    0.35960    0.94460    1.000
    H125     H        0.90530    0.37220    0.91050    1.000
    H126     H        0.96490    0.31380    0.93310    1.000
    H127     H        0.97880    0.39740    0.94740    1.000
    C106     C        0.04020    0.26240    0.03460    1.000
    H128     H        0.01040    0.22990    0.00650    1.000
    H129     H        0.07120    0.29090    0.00400    1.000
    C107     C        0.09080    0.21580    0.07190    1.000
    H130     H        0.11820    0.18530    0.04100    1.000
    H131     H        0.06260    0.18540    0.10240    1.000
    H132     H        0.12520    0.24570    0.09720    1.000
    C108     C        0.02370    0.41000    0.10010    1.000
    C109     C        0.09810    0.41240    0.11570    1.000
    H133     H        0.12570    0.36910    0.11320    1.000
    C110     C        0.13240    0.47220    0.13400    1.000
    H134     H        0.18340    0.46850    0.14370    1.000
    C111     C        0.03180    0.53670    0.12650    1.000
    H135     H        0.00660    0.58140    0.12970    1.000
    C112     C        0.99070    0.47400    0.10730    1.000
    H136     H        0.93930    0.47810    0.09970    1.000
    Ag5      Ag       0.84052    0.63000    0.65805    1.000
    Si9      Si       0.55030    0.50730    0.85450    1.000
    Si10     Si       0.13380    0.50710    0.86095    1.000
    N17      N        0.74020    0.58860    0.71570    1.000
    N18      N        0.63160    0.41840    0.05550    1.000
    N19      N        0.93870    0.59870    0.73160    1.000
    N20      N        0.14780    0.25210    0.85160    1.000
    C113     C        0.70320    0.52980    0.69650    1.000
    H137     H        0.71390    0.50870    0.65470    1.000
    C114     C        0.64940    0.49910    0.73650    1.000
    H138     H        0.62510    0.45610    0.72350    1.000
    C115     C        0.63130    0.53390    0.79840    1.000
    C116     C        0.67450    0.58500    0.81520    1.000
    H139     H        0.67060    0.60360    0.85890    1.000
    C117     C        0.72520    0.61390    0.77480    1.000
    H140     H        0.75150    0.65490    0.78980    1.000
    C118     C        0.48420    0.45370    0.81960    1.000
    H141     H        0.49680    0.44720    0.77230    1.000
    H142     H        0.48720    0.40570    0.84080    1.000
    C119     C        0.41610    0.47510    0.82300    1.000
    H143     H        0.39310    0.46040    0.86510    1.000
    H144     H        0.38690    0.45550    0.78560    1.000
    C120     C        0.42340    0.56530    0.81800    1.000
    H145     H        0.43900    0.57960    0.77260    1.000
    H146     H        0.37550    0.58820    0.82730    1.000
    C121     C        0.47990    0.58830    0.86770    1.000
    H147     H        0.45980    0.58950    0.91320    1.000
    H148     H        0.50200    0.63550    0.85660    1.000
    C122     C        0.58810    0.46730    0.93130    1.000
    C123     C        0.65760    0.47320    0.95330    1.000
    H149     H        0.69170    0.50060    0.92810    1.000
    C124     C        0.68170    0.44060    0.01190    1.000
    H150     H        0.73270    0.43440    0.02030    1.000
    C125     C        0.56330    0.42070    0.03650    1.000
    H151     H        0.52740    0.40540    0.06750    1.000
    C126     C        0.53820    0.44340    0.97550    1.000
    H152     H        0.48740    0.44210    0.96500    1.000
    C127     C        0.00730    0.60300    0.71130    1.000
    H153     H        0.01760    0.62670    0.67070    1.000
    C128     C        0.06540    0.57380    0.74770    1.000
    H154     H        0.11330    0.57590    0.72920    1.000
    C129     C        0.05700    0.54200    0.80920    1.000
    C130     C        0.98380    0.53960    0.82950    1.000
    H155     H        0.97090    0.51730    0.87020    1.000
    C131     C        0.93030    0.56980    0.78990    1.000
    H156     H        0.88170    0.56950    0.80720    1.000
    C132     C        0.12330    0.54020    0.95000    1.000
    H157     H        0.08060    0.57280    0.95490    1.000
    H158     H        0.11860    0.49970    0.98150    1.000
    C133     C        0.19600    0.58060    0.95920    1.000
    H159     H        0.19950    0.59910    0.00450    1.000
    H160     H        0.19880    0.62090    0.92790    1.000
    H161     H        0.23740    0.54760    0.95090    1.000
    C134     C        0.22510    0.54440    0.83260    1.000
    H162     H        0.26090    0.54230    0.86950    1.000
    H163     H        0.24440    0.51470    0.79580    1.000
    C135     C        0.21600    0.62900    0.80800    1.000
    H164     H        0.26450    0.65050    0.80200    1.000
    H165     H        0.18790    0.65600    0.84060    1.000
    H166     H        0.18960    0.62970    0.76520    1.000
    C136     C        0.13680    0.40420    0.85760    1.000
    C137     C        0.17830    0.36560    0.90270    1.000
    H167     H        0.20390    0.39020    0.93690    1.000
    C138     C        0.18250    0.29540    0.89850    1.000
    H168     H        0.21210    0.27170    0.93060    1.000
    C139     C        0.10730    0.28990    0.81100    1.000
    H169     H        0.08250    0.26490    0.77660    1.000
    C140     C        0.09820    0.36180    0.81420    1.000
    H170     H        0.06380    0.38390    0.78540    1.000
    Ag6      Ag       0.65948    0.37000    0.15805    1.000
    Si11     Si       0.94970    0.49270    0.35450    1.000
    Si12     Si       0.36620    0.49290    0.36095    1.000
    N21      N        0.75980    0.41140    0.21570    1.000
    N22      N        0.86840    0.58160    0.55550    1.000
    N23      N        0.56130    0.40130    0.23160    1.000
    N24      N        0.35220    0.74790    0.35160    1.000
    C141     C        0.79680    0.47020    0.19650    1.000
    H171     H        0.78610    0.49130    0.15470    1.000
    C142     C        0.85060    0.50090    0.23650    1.000
    H172     H        0.87490    0.54390    0.22350    1.000
    C143     C        0.86870    0.46610    0.29840    1.000
    C144     C        0.82550    0.41500    0.31520    1.000
    H173     H        0.82940    0.39640    0.35890    1.000
    C145     C        0.77480    0.38610    0.27480    1.000
    H174     H        0.74850    0.34510    0.28980    1.000
    C146     C        0.01580    0.54630    0.31960    1.000
    H175     H        0.00320    0.55280    0.27230    1.000
    H176     H        0.01280    0.59430    0.34080    1.000
    C147     C        0.08390    0.52490    0.32300    1.000
    H177     H        0.10690    0.53960    0.36510    1.000
    H178     H        0.11310    0.54450    0.28560    1.000
    C148     C        0.07660    0.43470    0.31800    1.000
    H179     H        0.06100    0.42040    0.27260    1.000
    H180     H        0.12450    0.41180    0.32730    1.000
    C149     C        0.02010    0.41170    0.36770    1.000
    H181     H        0.04020    0.41050    0.41320    1.000
    H182     H        0.99800    0.36450    0.35660    1.000
    C150     C        0.91190    0.53270    0.43130    1.000
    C151     C        0.84240    0.52680    0.45330    1.000
    H183     H        0.80830    0.49940    0.42810    1.000
    C152     C        0.81830    0.55940    0.51190    1.000
    H184     H        0.76730    0.56560    0.52030    1.000
    C153     C        0.93670    0.57930    0.53650    1.000
    H185     H        0.97260    0.59460    0.56750    1.000
    C154     C        0.96180    0.55660    0.47550    1.000
    H186     H        0.01260    0.55790    0.46500    1.000
    C155     C        0.49270    0.39700    0.21130    1.000
    H187     H        0.48240    0.37330    0.17070    1.000
    C156     C        0.43460    0.42620    0.24770    1.000
    H188     H        0.38670    0.42410    0.22920    1.000
    C157     C        0.44300    0.45800    0.30920    1.000
    C158     C        0.51620    0.46040    0.32950    1.000
    H189     H        0.52910    0.48270    0.37020    1.000
    C159     C        0.56970    0.43020    0.28990    1.000
    H190     H        0.61830    0.43050    0.30720    1.000
    C160     C        0.37670    0.45980    0.45000    1.000
    H191     H        0.41940    0.42720    0.45490    1.000
    H192     H        0.38140    0.50030    0.48150    1.000
    C161     C        0.30400    0.41940    0.45920    1.000
    H193     H        0.30050    0.40090    0.50450    1.000
    H194     H        0.30120    0.37910    0.42790    1.000
    H195     H        0.26260    0.45240    0.45090    1.000
    C162     C        0.27490    0.45560    0.33260    1.000
    H196     H        0.23910    0.45770    0.36950    1.000
    H197     H        0.25560    0.48530    0.29580    1.000
    C163     C        0.28400    0.37100    0.30800    1.000
    H198     H        0.23550    0.34950    0.30200    1.000
    H199     H        0.31210    0.34400    0.34060    1.000
    H200     H        0.31040    0.37030    0.26520    1.000
    C164     C        0.36320    0.59580    0.35760    1.000
    C165     C        0.32170    0.63440    0.40270    1.000
    H201     H        0.29610    0.60980    0.43690    1.000
    C166     C        0.31750    0.70460    0.39850    1.000
    H202     H        0.28790    0.72830    0.43060    1.000
    C167     C        0.39270    0.71010    0.31100    1.000
    H203     H        0.41750    0.73510    0.27660    1.000
    C168     C        0.40180    0.63820    0.31420    1.000
    H204     H        0.43620    0.61610    0.28540    1.000
    Ag7      Ag       0.15948    0.13000    0.84195    1.000
    Si13     Si       0.44970    0.00730    0.64550    1.000
    Si14     Si       0.86620    0.00710    0.63905    1.000
    N25      N        0.25980    0.08860    0.78430    1.000
    N26      N        0.36840    0.91840    0.44450    1.000
    N27      N        0.06130    0.09870    0.76840    1.000
    N28      N        0.85220    0.75210    0.64840    1.000
    C169     C        0.29680    0.02980    0.80350    1.000
    H205     H        0.28610    0.00870    0.84530    1.000
    C170     C        0.35060    0.99910    0.76350    1.000
    H206     H        0.37490    0.95610    0.77650    1.000
    C171     C        0.36870    0.03390    0.70160    1.000
    C172     C        0.32550    0.08500    0.68480    1.000
    H207     H        0.32940    0.10360    0.64110    1.000
    C173     C        0.27480    0.11390    0.72520    1.000
    H208     H        0.24850    0.15490    0.71020    1.000
    C174     C        0.51580    0.95370    0.68040    1.000
    H209     H        0.50320    0.94720    0.72770    1.000
    H210     H        0.51280    0.90570    0.65920    1.000
    C175     C        0.58390    0.97510    0.67700    1.000
    H211     H        0.60690    0.96040    0.63490    1.000
    H212     H        0.61310    0.95550    0.71440    1.000
    C176     C        0.57660    0.06530    0.68200    1.000
    H213     H        0.56100    0.07960    0.72740    1.000
    H214     H        0.62450    0.08820    0.67270    1.000
    C177     C        0.52010    0.08830    0.63230    1.000
    H215     H        0.54020    0.08950    0.58680    1.000
    H216     H        0.49800    0.13550    0.64340    1.000
    C178     C        0.41190    0.96730    0.56870    1.000
    C179     C        0.34240    0.97320    0.54670    1.000
    H217     H        0.30830    0.00060    0.57190    1.000
    C180     C        0.31830    0.94060    0.48810    1.000
    H218     H        0.26730    0.93440    0.47970    1.000
    C181     C        0.43670    0.92070    0.46350    1.000
    H219     H        0.47260    0.90540    0.43250    1.000
    C182     C        0.46180    0.94340    0.52450    1.000
    H220     H        0.51260    0.94210    0.53500    1.000
    C183     C        0.99270    0.10300    0.78870    1.000
    H221     H        0.98240    0.12670    0.82930    1.000
    C184     C        0.93460    0.07380    0.75230    1.000
    H222     H        0.88670    0.07590    0.77080    1.000
    C185     C        0.94300    0.04200    0.69080    1.000
    C186     C        0.01620    0.03960    0.67050    1.000
    H223     H        0.02910    0.01730    0.62980    1.000
    C187     C        0.06970    0.06980    0.71010    1.000
    H224     H        0.11830    0.06950    0.69280    1.000
    C188     C        0.87670    0.04020    0.55000    1.000
    H225     H        0.91940    0.07280    0.54510    1.000
    H226     H        0.88140    0.99970    0.51850    1.000
    C189     C        0.80400    0.08060    0.54080    1.000
    H227     H        0.80050    0.09910    0.49550    1.000
    H228     H        0.80120    0.12090    0.57210    1.000
    H229     H        0.76260    0.04760    0.54910    1.000
    C190     C        0.77490    0.04440    0.66740    1.000
    H230     H        0.73910    0.04230    0.63050    1.000
    H231     H        0.75560    0.01470    0.70420    1.000
    C191     C        0.78400    0.12900    0.69200    1.000
    H232     H        0.73550    0.15050    0.69800    1.000
    H233     H        0.81210    0.15600    0.65940    1.000
    H234     H        0.81040    0.12970    0.73480    1.000
    C192     C        0.86320    0.90420    0.64240    1.000
    C193     C        0.82170    0.86560    0.59730    1.000
    H235     H        0.79610    0.89020    0.56310    1.000
    C194     C        0.81750    0.79540    0.60150    1.000
    H236     H        0.78790    0.77170    0.56940    1.000
    C195     C        0.89270    0.78990    0.68900    1.000
    H237     H        0.91750    0.76490    0.72340    1.000
    C196     C        0.90180    0.86180    0.68580    1.000
    H238     H        0.93620    0.88390    0.71460    1.000
    Ag8      Ag       0.34052    0.87000    0.34195    1.000
    Si15     Si       0.05030    0.99270    0.14550    1.000
    Si16     Si       0.63380    0.99290    0.13905    1.000
    N29      N        0.24020    0.91140    0.28430    1.000
    N30      N        0.13160    0.08160    0.94450    1.000
    N31      N        0.43870    0.90130    0.26840    1.000
    N32      N        0.64780    0.24790    0.14840    1.000
    C197     C        0.20320    0.97020    0.30350    1.000
    H239     H        0.21390    0.99130    0.34530    1.000
    C198     C        0.14940    0.00090    0.26350    1.000
    H240     H        0.12510    0.04390    0.27650    1.000
    C199     C        0.13130    0.96610    0.20160    1.000
    C200     C        0.17450    0.91500    0.18480    1.000
    H241     H        0.17060    0.89640    0.14110    1.000
    C201     C        0.22520    0.88610    0.22520    1.000
    H242     H        0.25150    0.84510    0.21020    1.000
    C202     C        0.98420    0.04630    0.18040    1.000
    H243     H        0.99680    0.05280    0.22770    1.000
    H244     H        0.98720    0.09430    0.15920    1.000
    C203     C        0.91610    0.02490    0.17700    1.000
    H245     H        0.89310    0.03960    0.13490    1.000
    H246     H        0.88690    0.04450    0.21440    1.000
    C204     C        0.92340    0.93470    0.18200    1.000
    H247     H        0.93900    0.92040    0.22740    1.000
    H248     H        0.87550    0.91180    0.17270    1.000
    C205     C        0.97990    0.91170    0.13230    1.000
    H249     H        0.95980    0.91050    0.08680    1.000
    H250     H        0.00200    0.86450    0.14340    1.000
    C206     C        0.08810    0.03270    0.06870    1.000
    C207     C        0.15760    0.02680    0.04670    1.000
    H251     H        0.19170    0.99940    0.07190    1.000
    C208     C        0.18170    0.05940    0.98810    1.000
    H252     H        0.23270    0.06560    0.97970    1.000
    C209     C        0.06330    0.07930    0.96350    1.000
    H253     H        0.02740    0.09460    0.93250    1.000
    C210     C        0.03820    0.05660    0.02450    1.000
    H254     H        0.98740    0.05790    0.03500    1.000
    C211     C        0.50730    0.89700    0.28870    1.000
    H255     H        0.51760    0.87330    0.32930    1.000
    C212     C        0.56540    0.92620    0.25230    1.000
    H256     H        0.61330    0.92410    0.27080    1.000
    C213     C        0.55700    0.95800    0.19080    1.000
    C214     C        0.48380    0.96040    0.17050    1.000
    H257     H        0.47090    0.98270    0.12980    1.000
    C215     C        0.43030    0.93020    0.21010    1.000
    H258     H        0.38170    0.93050    0.19280    1.000
    C216     C        0.62330    0.95980    0.05000    1.000
    H259     H        0.58060    0.92720    0.04510    1.000
    H260     H        0.61860    0.00030    0.01850    1.000
    C217     C        0.69600    0.91940    0.04080    1.000
    H261     H        0.69950    0.90090    0.99550    1.000
    H262     H        0.69880    0.87910    0.07210    1.000
    H263     H        0.73740    0.95240    0.04910    1.000
    C218     C        0.72510    0.95560    0.16740    1.000
    H264     H        0.76090    0.95770    0.13050    1.000
    H265     H        0.74440    0.98530    0.20420    1.000
    C219     C        0.71600    0.87100    0.19200    1.000
    H266     H        0.76450    0.84950    0.19800    1.000
    H267     H        0.68790    0.84400    0.15940    1.000
    H268     H        0.68960    0.87030    0.23480    1.000
    C220     C        0.63680    0.09580    0.14240    1.000
    C221     C        0.67830    0.13440    0.09730    1.000
    H269     H        0.70390    0.10980    0.06310    1.000
    C222     C        0.68250    0.20460    0.10150    1.000
    H270     H        0.71210    0.22830    0.06940    1.000
    C223     C        0.60730    0.21010    0.18900    1.000
    H271     H        0.58250    0.23510    0.22340    1.000
    C224     C        0.59820    0.13820    0.18580    1.000
    H272     H        0.56380    0.11610    0.21460    1.000
