# CIF file generated by openbabel 3.1.0, see https://openbabel.org
data_I
_chemical_name_common 'image0'
_cell_length_a 16.6606
_cell_length_b 16.6606
_cell_length_c 51.316
_cell_angle_alpha 90
_cell_angle_beta 90
_cell_angle_gamma 120
_space_group_name_H-M_alt 'P 1'
_space_group_name_Hall 'P 1'
loop_
    _symmetry_equiv_pos_as_xyz
    x,y,z
loop_
    _atom_site_label
    _atom_site_type_symbol
    _atom_site_fract_x
    _atom_site_fract_y
    _atom_site_fract_z
    _atom_site_occupancy
    W1       W        0.74842    0.47997    0.02976    1.000
    Yb1      Yb       0.11630    0.77159    0.07954    1.000
    O1       O        0.58000    0.47240    0.07660    1.000
    C1       C        0.37750    0.94020    0.02970    1.000
    O2       O        0.87790    0.54780    0.04370    1.000
    O3       O        0.68040    0.51070    0.11800    1.000
    O4       O        0.72770    0.56970    0.04600    1.000
    O5       O        0.73140    0.44230    0.15580    1.000
    O6       O        0.83860    0.61120    0.08800    1.000
    O7       O        0.24570    0.85820    0.05640    1.000
    O8       O        0.00230    0.61410    0.08240    1.000
    O9       O        0.37430    0.08910    0.95190    1.000
    C2       C        0.38030    0.01720    0.99100    1.000
    N1       N        0.50380    0.99510    0.99750    1.000
    C3       C        0.46360    0.02970    0.98700    1.000
    H1       H        0.49800    0.06930    0.97270    1.000
    C4       C        0.33490    0.96750    0.01300    1.000
    H2       H        0.27210    0.95210    0.01640    1.000
    C5       C        0.46640    0.95530    0.02220    1.000
    H3       H        0.49840    0.93270    0.03280    1.000
    C6       C        0.33000    0.04700    0.97230    1.000
    O10      O        0.37140    0.86700    0.07180    1.000
    C7       C        0.32910    0.88360    0.05380    1.000
    O11      O        0.73940    0.45080    0.07250    1.000
    W2       W        0.70920    0.56075    0.08400    1.000
    W3       W        0.88554    0.52490    0.07994    1.000
    O12      O        0.26030    0.05100    0.98240    1.000
    O13      O        0.77180    0.37850    0.02720    1.000
    W4       W        0.80018    0.39208    0.14060    1.000
    O14      O        0.85430    0.48420    0.11680    1.000
    W5       W        0.41509    0.81330    0.36309    1.000
    Yb2      Yb       0.78297    0.10492    0.41288    1.000
    O15      O        0.24667    0.80573    0.40993    1.000
    C8       C        0.04417    0.27353    0.36303    1.000
    O16      O        0.54457    0.88113    0.37703    1.000
    O17      O        0.34707    0.84403    0.45133    1.000
    O18      O        0.39437    0.90303    0.37933    1.000
    O19      O        0.39807    0.77563    0.48913    1.000
    O20      O        0.50527    0.94453    0.42133    1.000
    O21      O        0.91237    0.19153    0.38973    1.000
    O22      O        0.66897    0.94743    0.41573    1.000
    O23      O        0.04097    0.42243    0.28523    1.000
    C9       C        0.04697    0.35053    0.32433    1.000
    N2       N        0.17047    0.32843    0.33083    1.000
    C10      C        0.13027    0.36303    0.32033    1.000
    H4       H        0.16467    0.40263    0.30603    1.000
    C11      C        0.00157    0.30083    0.34633    1.000
    H5       H        0.93877    0.28543    0.34973    1.000
    C12      C        0.13307    0.28863    0.35553    1.000
    H6       H        0.16507    0.26603    0.36613    1.000
    C13      C        0.99667    0.38033    0.30563    1.000
    O24      O        0.03807    0.20033    0.40513    1.000
    C14      C        0.99577    0.21693    0.38713    1.000
    O25      O        0.40607    0.78413    0.40583    1.000
    W6       W        0.37587    0.89408    0.41733    1.000
    W7       W        0.55221    0.85823    0.41327    1.000
    O26      O        0.92697    0.38433    0.31573    1.000
    O27      O        0.43847    0.71183    0.36053    1.000
    W8       W        0.46685    0.72541    0.47394    1.000
    O28      O        0.52097    0.81753    0.45013    1.000
    W9       W        0.08175    0.14664    0.69642    1.000
    Yb3      Yb       0.44963    0.43826    0.74621    1.000
    O29      O        0.91333    0.13907    0.74327    1.000
    C15      C        0.71083    0.60687    0.69637    1.000
    O30      O        0.21123    0.21447    0.71037    1.000
    O31      O        0.01373    0.17737    0.78467    1.000
    O32      O        0.06103    0.23637    0.71267    1.000
    O33      O        0.06473    0.10897    0.82247    1.000
    O34      O        0.17193    0.27787    0.75467    1.000
    O35      O        0.57903    0.52487    0.72307    1.000
    O36      O        0.33563    0.28077    0.74907    1.000
    O37      O        0.70763    0.75577    0.61857    1.000
    C16      C        0.71363    0.68387    0.65767    1.000
    N3       N        0.83713    0.66177    0.66417    1.000
    C17      C        0.79693    0.69637    0.65367    1.000
    H7       H        0.83133    0.73597    0.63937    1.000
    C18      C        0.66823    0.63417    0.67967    1.000
    H8       H        0.60543    0.61877    0.68307    1.000
    C19      C        0.79973    0.62197    0.68887    1.000
    H9       H        0.83173    0.59937    0.69947    1.000
    C20      C        0.66333    0.71367    0.63897    1.000
    O38      O        0.70473    0.53367    0.73847    1.000
    C21      C        0.66243    0.55027    0.72047    1.000
    O39      O        0.07273    0.11747    0.73917    1.000
    W10      W        0.04253    0.22742    0.75066    1.000
    W11      W        0.21887    0.19157    0.74661    1.000
    O40      O        0.59363    0.71767    0.64907    1.000
    O41      O        0.10513    0.04517    0.69387    1.000
    W12      W        0.13351    0.05875    0.80727    1.000
    O42      O        0.18763    0.15087    0.78347    1.000
    W13      W        0.52003    0.26845    0.02976    1.000
    Yb4      Yb       0.22841    0.34471    0.07954    1.000
    O43      O        0.52760    0.10760    0.07660    1.000
    C22      C        0.05980    0.43730    0.02970    1.000
    O44      O        0.45220    0.33010    0.04370    1.000
    O45      O        0.48930    0.16970    0.11800    1.000
    O46      O        0.43030    0.15800    0.04600    1.000
    O47      O        0.55770    0.28910    0.15580    1.000
    O48      O        0.38880    0.22740    0.08800    1.000
    O49      O        0.14180    0.38750    0.05640    1.000
    O50      O        0.38590    0.38820    0.08240    1.000
    O51      O        0.91090    0.28520    0.95190    1.000
    C23      C        0.98280    0.36310    0.99100    1.000
    N4       N        0.00490    0.50870    0.99750    1.000
    C24      C        0.97030    0.43390    0.98700    1.000
    H10      H        0.93070    0.42870    0.97270    1.000
    C25      C        0.03250    0.36740    0.01300    1.000
    H11      H        0.04790    0.32000    0.01640    1.000
    C26      C        0.04470    0.51110    0.02220    1.000
    H12      H        0.06730    0.56570    0.03280    1.000
    C27      C        0.95300    0.28300    0.97230    1.000
    O52      O        0.13300    0.50440    0.07180    1.000
    C28      C        0.11640    0.44550    0.05380    1.000
    O53      O        0.54920    0.28860    0.07250    1.000
    W14      W        0.43925    0.14845    0.08400    1.000
    W15      W        0.47510    0.36064    0.07994    1.000
    O54      O        0.94900    0.20930    0.98240    1.000
    O55      O        0.62150    0.39330    0.02720    1.000
    W16      W        0.60792    0.40810    0.14060    1.000
    O56      O        0.51580    0.37010    0.11680    1.000
    W17      W        0.18670    0.60178    0.36309    1.000
    Yb5      Yb       0.89508    0.67804    0.41288    1.000
    O57      O        0.19427    0.44093    0.40993    1.000
    C29      C        0.72647    0.77063    0.36303    1.000
    O58      O        0.11887    0.66343    0.37703    1.000
    O59      O        0.15597    0.50303    0.45133    1.000
    O60      O        0.09697    0.49133    0.37933    1.000
    O61      O        0.22437    0.62243    0.48913    1.000
    O62      O        0.05547    0.56073    0.42133    1.000
    O63      O        0.80847    0.72083    0.38973    1.000
    O64      O        0.05257    0.72153    0.41573    1.000
    O65      O        0.57757    0.61853    0.28523    1.000
    C30      C        0.64947    0.69643    0.32433    1.000
    N5       N        0.67157    0.84203    0.33083    1.000
    C31      C        0.63697    0.76723    0.32033    1.000
    H13      H        0.59737    0.76203    0.30603    1.000
    C32      C        0.69917    0.70073    0.34633    1.000
    H14      H        0.71457    0.65333    0.34973    1.000
    C33      C        0.71137    0.84443    0.35553    1.000
    H15      H        0.73397    0.89903    0.36613    1.000
    C34      C        0.61967    0.61633    0.30563    1.000
    O66      O        0.79967    0.83773    0.40513    1.000
    C35      C        0.78307    0.77883    0.38713    1.000
    O67      O        0.21587    0.62193    0.40583    1.000
    W18      W        0.10592    0.48178    0.41733    1.000
    W19      W        0.14177    0.69397    0.41327    1.000
    O68      O        0.61567    0.54263    0.31573    1.000
    O69      O        0.28817    0.72663    0.36053    1.000
    W20      W        0.27459    0.74143    0.47394    1.000
    O70      O        0.18247    0.70343    0.45013    1.000
    W21      W        0.85336    0.93512    0.69642    1.000
    Yb6      Yb       0.56174    0.01138    0.74621    1.000
    O71      O        0.86093    0.77427    0.74327    1.000
    C36      C        0.39313    0.10397    0.69637    1.000
    O72      O        0.78553    0.99677    0.71037    1.000
    O73      O        0.82263    0.83637    0.78467    1.000
    O74      O        0.76363    0.82467    0.71267    1.000
    O75      O        0.89103    0.95577    0.82247    1.000
    O76      O        0.72213    0.89407    0.75467    1.000
    O77      O        0.47513    0.05417    0.72307    1.000
    O78      O        0.71923    0.05487    0.74907    1.000
    O79      O        0.24423    0.95187    0.61857    1.000
    C37      C        0.31613    0.02977    0.65767    1.000
    N6       N        0.33823    0.17537    0.66417    1.000
    C38      C        0.30363    0.10057    0.65367    1.000
    H16      H        0.26403    0.09537    0.63937    1.000
    C39      C        0.36583    0.03407    0.67967    1.000
    H17      H        0.38123    0.98667    0.68307    1.000
    C40      C        0.37803    0.17777    0.68887    1.000
    H18      H        0.40063    0.23237    0.69947    1.000
    C41      C        0.28633    0.94967    0.63897    1.000
    O80      O        0.46633    0.17107    0.73847    1.000
    C42      C        0.44973    0.11217    0.72047    1.000
    O81      O        0.88253    0.95527    0.73917    1.000
    W22      W        0.77258    0.81512    0.75066    1.000
    W23      W        0.80843    0.02731    0.74661    1.000
    O82      O        0.28233    0.87597    0.64907    1.000
    O83      O        0.95483    0.05997    0.69387    1.000
    W24      W        0.94125    0.07477    0.80727    1.000
    O84      O        0.84913    0.03677    0.78347    1.000
    W25      W        0.73155    0.25158    0.02976    1.000
    Yb7      Yb       0.65529    0.88370    0.07954    1.000
    O85      O        0.89240    0.42000    0.07660    1.000
    C43      C        0.56270    0.62250    0.02970    1.000
    O86      O        0.66990    0.12210    0.04370    1.000
    O87      O        0.83030    0.31960    0.11800    1.000
    O88      O        0.84200    0.27230    0.04600    1.000
    O89      O        0.71090    0.26860    0.15580    1.000
    O90      O        0.77260    0.16140    0.08800    1.000
    O91      O        0.61250    0.75430    0.05640    1.000
    O92      O        0.61180    0.99770    0.08240    1.000
    O93      O        0.71480    0.62570    0.95190    1.000
    C44      C        0.63690    0.61970    0.99100    1.000
    N7       N        0.49130    0.49620    0.99750    1.000
    C45      C        0.56610    0.53640    0.98700    1.000
    H19      H        0.57130    0.50200    0.97270    1.000
    C46      C        0.63260    0.66510    0.01300    1.000
    H20      H        0.68000    0.72790    0.01640    1.000
    C47      C        0.48890    0.53360    0.02220    1.000
    H21      H        0.43430    0.50160    0.03280    1.000
    C48      C        0.71700    0.67000    0.97230    1.000
    O94      O        0.49560    0.62860    0.07180    1.000
    C49      C        0.55450    0.67090    0.05380    1.000
    O95      O        0.71140    0.26060    0.07250    1.000
    W26      W        0.85155    0.29080    0.08400    1.000
    W27      W        0.63936    0.11446    0.07994    1.000
    O96      O        0.79070    0.73970    0.98240    1.000
    O97      O        0.60670    0.22820    0.02720    1.000
    W28      W        0.59190    0.19982    0.14060    1.000
    O98      O        0.62990    0.14570    0.11680    1.000
    W29      W        0.39822    0.58491    0.36309    1.000
    Yb8      Yb       0.32196    0.21703    0.41288    1.000
    O99      O        0.55907    0.75333    0.40993    1.000
    C50      C        0.22937    0.95583    0.36303    1.000
    O100     O        0.33657    0.45543    0.37703    1.000
    O101     O        0.49697    0.65293    0.45133    1.000
    O102     O        0.50867    0.60563    0.37933    1.000
    O103     O        0.37757    0.60193    0.48913    1.000
    O104     O        0.43927    0.49473    0.42133    1.000
    O105     O        0.27917    0.08763    0.38973    1.000
    O106     O        0.27847    0.33103    0.41573    1.000
    O107     O        0.38147    0.95903    0.28523    1.000
    C51      C        0.30357    0.95303    0.32433    1.000
    N8       N        0.15797    0.82953    0.33083    1.000
    C52      C        0.23277    0.86973    0.32033    1.000
    H22      H        0.23797    0.83533    0.30603    1.000
    C53      C        0.29927    0.99843    0.34633    1.000
    H23      H        0.34667    0.06123    0.34973    1.000
    C54      C        0.15557    0.86693    0.35553    1.000
    H24      H        0.10097    0.83493    0.36613    1.000
    C55      C        0.38367    0.00333    0.30563    1.000
    O108     O        0.16227    0.96193    0.40513    1.000
    C56      C        0.22117    0.00423    0.38713    1.000
    O109     O        0.37807    0.59393    0.40583    1.000
    W30      W        0.51822    0.62413    0.41733    1.000
    W31      W        0.30603    0.44779    0.41327    1.000
    O110     O        0.45737    0.07303    0.31573    1.000
    O111     O        0.27337    0.56153    0.36053    1.000
    W32      W        0.25857    0.53315    0.47394    1.000
    O112     O        0.29657    0.47903    0.45013    1.000
    W33      W        0.06488    0.91825    0.69642    1.000
    Yb9      Yb       0.98862    0.55037    0.74621    1.000
    O113     O        0.22573    0.08667    0.74327    1.000
    C57      C        0.89603    0.28917    0.69637    1.000
    O114     O        0.00323    0.78877    0.71037    1.000
    O115     O        0.16363    0.98627    0.78467    1.000
    O116     O        0.17533    0.93897    0.71267    1.000
    O117     O        0.04423    0.93527    0.82247    1.000
    O118     O        0.10593    0.82807    0.75467    1.000
    O119     O        0.94583    0.42097    0.72307    1.000
    O120     O        0.94513    0.66437    0.74907    1.000
    O121     O        0.04813    0.29237    0.61857    1.000
    C58      C        0.97023    0.28637    0.65767    1.000
    N9       N        0.82463    0.16287    0.66417    1.000
    C59      C        0.89943    0.20307    0.65367    1.000
    H25      H        0.90463    0.16867    0.63937    1.000
    C60      C        0.96593    0.33177    0.67967    1.000
    H26      H        0.01333    0.39457    0.68307    1.000
    C61      C        0.82223    0.20027    0.68887    1.000
    H27      H        0.76763    0.16827    0.69947    1.000
    C62      C        0.05033    0.33667    0.63897    1.000
    O122     O        0.82893    0.29527    0.73847    1.000
    C63      C        0.88783    0.33757    0.72047    1.000
    O123     O        0.04473    0.92727    0.73917    1.000
    W34      W        0.18488    0.95747    0.75066    1.000
    W35      W        0.97269    0.78113    0.74661    1.000
    O124     O        0.12403    0.40637    0.64907    1.000
    O125     O        0.94003    0.89487    0.69387    1.000
    W36      W        0.92523    0.86649    0.80727    1.000
    O126     O        0.96323    0.81237    0.78347    1.000
    W37      W        0.52003    0.25158    0.52976    1.000
    Yb10     Yb       0.22841    0.88370    0.57954    1.000
    O127     O        0.52760    0.42000    0.57660    1.000
    C64      C        0.05980    0.62250    0.52970    1.000
    O128     O        0.45220    0.12210    0.54370    1.000
    O129     O        0.48930    0.31960    0.61800    1.000
    O130     O        0.43030    0.27230    0.54600    1.000
    O131     O        0.55770    0.26860    0.65580    1.000
    O132     O        0.38880    0.16140    0.58800    1.000
    O133     O        0.14180    0.75430    0.55640    1.000
    O134     O        0.38590    0.99770    0.58240    1.000
    O135     O        0.91090    0.62570    0.45190    1.000
    C65      C        0.98280    0.61970    0.49100    1.000
    N10      N        0.00490    0.49620    0.49750    1.000
    C66      C        0.97030    0.53640    0.48700    1.000
    H28      H        0.93070    0.50200    0.47270    1.000
    C67      C        0.03250    0.66510    0.51300    1.000
    H29      H        0.04790    0.72790    0.51640    1.000
    C68      C        0.04470    0.53360    0.52220    1.000
    H30      H        0.06730    0.50160    0.53280    1.000
    C69      C        0.95300    0.67000    0.47230    1.000
    O136     O        0.13300    0.62860    0.57180    1.000
    C70      C        0.11640    0.67090    0.55380    1.000
    O137     O        0.54920    0.26060    0.57250    1.000
    W38      W        0.43925    0.29080    0.58400    1.000
    W39      W        0.47510    0.11446    0.57994    1.000
    O138     O        0.94900    0.73970    0.48240    1.000
    O139     O        0.62150    0.22820    0.52720    1.000
    W40      W        0.60792    0.19982    0.64060    1.000
    O140     O        0.51580    0.14570    0.61680    1.000
    W41      W        0.18670    0.58491    0.86309    1.000
    Yb11     Yb       0.89508    0.21703    0.91288    1.000
    O141     O        0.19427    0.75333    0.90993    1.000
    C71      C        0.72647    0.95583    0.86303    1.000
    O142     O        0.11887    0.45543    0.87703    1.000
    O143     O        0.15597    0.65293    0.95133    1.000
    O144     O        0.09697    0.60563    0.87933    1.000
    O145     O        0.22437    0.60193    0.98913    1.000
    O146     O        0.05547    0.49473    0.92133    1.000
    O147     O        0.80847    0.08763    0.88973    1.000
    O148     O        0.05257    0.33103    0.91573    1.000
    O149     O        0.57757    0.95903    0.78523    1.000
    C72      C        0.64947    0.95303    0.82433    1.000
    N11      N        0.67157    0.82953    0.83083    1.000
    C73      C        0.63697    0.86973    0.82033    1.000
    H31      H        0.59737    0.83533    0.80603    1.000
    C74      C        0.69917    0.99843    0.84633    1.000
    H32      H        0.71457    0.06123    0.84973    1.000
    C75      C        0.71137    0.86693    0.85553    1.000
    H33      H        0.73397    0.83493    0.86613    1.000
    C76      C        0.61967    0.00333    0.80563    1.000
    O150     O        0.79967    0.96193    0.90513    1.000
    C77      C        0.78307    0.00423    0.88713    1.000
    O151     O        0.21587    0.59393    0.90583    1.000
    W42      W        0.10592    0.62413    0.91733    1.000
    W43      W        0.14177    0.44779    0.91327    1.000
    O152     O        0.61567    0.07303    0.81573    1.000
    O153     O        0.28817    0.56153    0.86053    1.000
    W44      W        0.27459    0.53315    0.97394    1.000
    O154     O        0.18247    0.47903    0.95013    1.000
    W45      W        0.85336    0.91825    0.19642    1.000
    Yb12     Yb       0.56174    0.55037    0.24621    1.000
    O155     O        0.86093    0.08667    0.24327    1.000
    C78      C        0.39313    0.28917    0.19637    1.000
    O156     O        0.78553    0.78877    0.21037    1.000
    O157     O        0.82263    0.98627    0.28467    1.000
    O158     O        0.76363    0.93897    0.21267    1.000
    O159     O        0.89103    0.93527    0.32247    1.000
    O160     O        0.72213    0.82807    0.25467    1.000
    O161     O        0.47513    0.42097    0.22307    1.000
    O162     O        0.71923    0.66437    0.24907    1.000
    O163     O        0.24423    0.29237    0.11857    1.000
    C79      C        0.31613    0.28637    0.15767    1.000
    N12      N        0.33823    0.16287    0.16417    1.000
    C80      C        0.30363    0.20307    0.15367    1.000
    H34      H        0.26403    0.16867    0.13937    1.000
    C81      C        0.36583    0.33177    0.17967    1.000
    H35      H        0.38123    0.39457    0.18307    1.000
    C82      C        0.37803    0.20027    0.18887    1.000
    H36      H        0.40063    0.16827    0.19947    1.000
    C83      C        0.28633    0.33667    0.13897    1.000
    O164     O        0.46633    0.29527    0.23847    1.000
    C84      C        0.44973    0.33757    0.22047    1.000
    O165     O        0.88253    0.92727    0.23917    1.000
    W46      W        0.77258    0.95747    0.25066    1.000
    W47      W        0.80843    0.78113    0.24661    1.000
    O166     O        0.28233    0.40637    0.14907    1.000
    O167     O        0.95483    0.89487    0.19387    1.000
    W48      W        0.94125    0.86649    0.30727    1.000
    O168     O        0.84913    0.81237    0.28347    1.000
    W49      W        0.73155    0.47997    0.52976    1.000
    Yb13     Yb       0.65529    0.77159    0.57954    1.000
    O169     O        0.89240    0.47240    0.57660    1.000
    C85      C        0.56270    0.94020    0.52970    1.000
    O170     O        0.66990    0.54780    0.54370    1.000
    O171     O        0.83030    0.51070    0.61800    1.000
    O172     O        0.84200    0.56970    0.54600    1.000
    O173     O        0.71090    0.44230    0.65580    1.000
    O174     O        0.77260    0.61120    0.58800    1.000
    O175     O        0.61250    0.85820    0.55640    1.000
    O176     O        0.61180    0.61410    0.58240    1.000
    O177     O        0.71480    0.08910    0.45190    1.000
    C86      C        0.63690    0.01720    0.49100    1.000
    N13      N        0.49130    0.99510    0.49750    1.000
    C87      C        0.56610    0.02970    0.48700    1.000
    H37      H        0.57130    0.06930    0.47270    1.000
    C88      C        0.63260    0.96750    0.51300    1.000
    H38      H        0.68000    0.95210    0.51640    1.000
    C89      C        0.48890    0.95530    0.52220    1.000
    H39      H        0.43430    0.93270    0.53280    1.000
    C90      C        0.71700    0.04700    0.47230    1.000
    O178     O        0.49560    0.86700    0.57180    1.000
    C91      C        0.55450    0.88360    0.55380    1.000
    O179     O        0.71140    0.45080    0.57250    1.000
    W50      W        0.85155    0.56075    0.58400    1.000
    W51      W        0.63936    0.52490    0.57994    1.000
    O180     O        0.79070    0.05100    0.48240    1.000
    O181     O        0.60670    0.37850    0.52720    1.000
    W52      W        0.59190    0.39208    0.64060    1.000
    O182     O        0.62990    0.48420    0.61680    1.000
    W53      W        0.39822    0.81330    0.86309    1.000
    Yb14     Yb       0.32196    0.10492    0.91288    1.000
    O183     O        0.55907    0.80573    0.90993    1.000
    C92      C        0.22937    0.27353    0.86303    1.000
    O184     O        0.33657    0.88113    0.87703    1.000
    O185     O        0.49697    0.84403    0.95133    1.000
    O186     O        0.50867    0.90303    0.87933    1.000
    O187     O        0.37757    0.77563    0.98913    1.000
    O188     O        0.43927    0.94453    0.92133    1.000
    O189     O        0.27917    0.19153    0.88973    1.000
    O190     O        0.27847    0.94743    0.91573    1.000
    O191     O        0.38147    0.42243    0.78523    1.000
    C93      C        0.30357    0.35053    0.82433    1.000
    N14      N        0.15797    0.32843    0.83083    1.000
    C94      C        0.23277    0.36303    0.82033    1.000
    H40      H        0.23797    0.40263    0.80603    1.000
    C95      C        0.29927    0.30083    0.84633    1.000
    H41      H        0.34667    0.28543    0.84973    1.000
    C96      C        0.15557    0.28863    0.85553    1.000
    H42      H        0.10097    0.26603    0.86613    1.000
    C97      C        0.38367    0.38033    0.80563    1.000
    O192     O        0.16227    0.20033    0.90513    1.000
    C98      C        0.22117    0.21693    0.88713    1.000
    O193     O        0.37807    0.78413    0.90583    1.000
    W54      W        0.51822    0.89408    0.91733    1.000
    W55      W        0.30603    0.85823    0.91327    1.000
    O194     O        0.45737    0.38433    0.81573    1.000
    O195     O        0.27337    0.71183    0.86053    1.000
    W56      W        0.25857    0.72541    0.97394    1.000
    O196     O        0.29657    0.81753    0.95013    1.000
    W57      W        0.06488    0.14664    0.19642    1.000
    Yb15     Yb       0.98862    0.43826    0.24621    1.000
    O197     O        0.22573    0.13907    0.24327    1.000
    C99      C        0.89603    0.60687    0.19637    1.000
    O198     O        0.00323    0.21447    0.21037    1.000
    O199     O        0.16363    0.17737    0.28467    1.000
    O200     O        0.17533    0.23637    0.21267    1.000
    O201     O        0.04423    0.10897    0.32247    1.000
    O202     O        0.10593    0.27787    0.25467    1.000
    O203     O        0.94583    0.52487    0.22307    1.000
    O204     O        0.94513    0.28077    0.24907    1.000
    O205     O        0.04813    0.75577    0.11857    1.000
    C100     C        0.97023    0.68387    0.15767    1.000
    N15      N        0.82463    0.66177    0.16417    1.000
    C101     C        0.89943    0.69637    0.15367    1.000
    H43      H        0.90463    0.73597    0.13937    1.000
    C102     C        0.96593    0.63417    0.17967    1.000
    H44      H        0.01333    0.61877    0.18307    1.000
    C103     C        0.82223    0.62197    0.18887    1.000
    H45      H        0.76763    0.59937    0.19947    1.000
    C104     C        0.05033    0.71367    0.13897    1.000
    O206     O        0.82893    0.53367    0.23847    1.000
    C105     C        0.88783    0.55027    0.22047    1.000
    O207     O        0.04473    0.11747    0.23917    1.000
    W58      W        0.18488    0.22742    0.25066    1.000
    W59      W        0.97269    0.19157    0.24661    1.000
    O208     O        0.12403    0.71767    0.14907    1.000
    O209     O        0.94003    0.04517    0.19387    1.000
    W60      W        0.92523    0.05875    0.30727    1.000
    O210     O        0.96323    0.15087    0.28347    1.000
    W61      W        0.74842    0.26845    0.52976    1.000
    Yb16     Yb       0.11630    0.34471    0.57954    1.000
    O211     O        0.58000    0.10760    0.57660    1.000
    C106     C        0.37750    0.43730    0.52970    1.000
    O212     O        0.87790    0.33010    0.54370    1.000
    O213     O        0.68040    0.16970    0.61800    1.000
    O214     O        0.72770    0.15800    0.54600    1.000
    O215     O        0.73140    0.28910    0.65580    1.000
    O216     O        0.83860    0.22740    0.58800    1.000
    O217     O        0.24570    0.38750    0.55640    1.000
    O218     O        0.00230    0.38820    0.58240    1.000
    O219     O        0.37430    0.28520    0.45190    1.000
    C107     C        0.38030    0.36310    0.49100    1.000
    N16      N        0.50380    0.50870    0.49750    1.000
    C108     C        0.46360    0.43390    0.48700    1.000
    H46      H        0.49800    0.42870    0.47270    1.000
    C109     C        0.33490    0.36740    0.51300    1.000
    H47      H        0.27210    0.32000    0.51640    1.000
    C110     C        0.46640    0.51110    0.52220    1.000
    H48      H        0.49840    0.56570    0.53280    1.000
    C111     C        0.33000    0.28300    0.47230    1.000
    O220     O        0.37140    0.50440    0.57180    1.000
    C112     C        0.32910    0.44550    0.55380    1.000
    O221     O        0.73940    0.28860    0.57250    1.000
    W62      W        0.70920    0.14845    0.58400    1.000
    W63      W        0.88554    0.36064    0.57994    1.000
    O222     O        0.26030    0.20930    0.48240    1.000
    O223     O        0.77180    0.39330    0.52720    1.000
    W64      W        0.80018    0.40810    0.64060    1.000
    O224     O        0.85430    0.37010    0.61680    1.000
    W65      W        0.41509    0.60178    0.86309    1.000
    Yb17     Yb       0.78297    0.67804    0.91288    1.000
    O225     O        0.24667    0.44093    0.90993    1.000
    C113     C        0.04417    0.77063    0.86303    1.000
    O226     O        0.54457    0.66343    0.87703    1.000
    O227     O        0.34707    0.50303    0.95133    1.000
    O228     O        0.39437    0.49133    0.87933    1.000
    O229     O        0.39807    0.62243    0.98913    1.000
    O230     O        0.50527    0.56073    0.92133    1.000
    O231     O        0.91237    0.72083    0.88973    1.000
    O232     O        0.66897    0.72153    0.91573    1.000
    O233     O        0.04097    0.61853    0.78523    1.000
    C114     C        0.04697    0.69643    0.82433    1.000
    N17      N        0.17047    0.84203    0.83083    1.000
    C115     C        0.13027    0.76723    0.82033    1.000
    H49      H        0.16467    0.76203    0.80603    1.000
    C116     C        0.00157    0.70073    0.84633    1.000
    H50      H        0.93877    0.65333    0.84973    1.000
    C117     C        0.13307    0.84443    0.85553    1.000
    H51      H        0.16507    0.89903    0.86613    1.000
    C118     C        0.99667    0.61633    0.80563    1.000
    O234     O        0.03807    0.83773    0.90513    1.000
    C119     C        0.99577    0.77883    0.88713    1.000
    O235     O        0.40607    0.62193    0.90583    1.000
    W66      W        0.37587    0.48178    0.91733    1.000
    W67      W        0.55221    0.69397    0.91327    1.000
    O236     O        0.92697    0.54263    0.81573    1.000
    O237     O        0.43847    0.72663    0.86053    1.000
    W68      W        0.46685    0.74143    0.97394    1.000
    O238     O        0.52097    0.70343    0.95013    1.000
    W69      W        0.08175    0.93512    0.19642    1.000
    Yb18     Yb       0.44963    0.01138    0.24621    1.000
    O239     O        0.91333    0.77427    0.24327    1.000
    C120     C        0.71083    0.10397    0.19637    1.000
    O240     O        0.21123    0.99677    0.21037    1.000
    O241     O        0.01373    0.83637    0.28467    1.000
    O242     O        0.06103    0.82467    0.21267    1.000
    O243     O        0.06473    0.95577    0.32247    1.000
    O244     O        0.17193    0.89407    0.25467    1.000
    O245     O        0.57903    0.05417    0.22307    1.000
    O246     O        0.33563    0.05487    0.24907    1.000
    O247     O        0.70763    0.95187    0.11857    1.000
    C121     C        0.71363    0.02977    0.15767    1.000
    N18      N        0.83713    0.17537    0.16417    1.000
    C122     C        0.79693    0.10057    0.15367    1.000
    H52      H        0.83133    0.09537    0.13937    1.000
    C123     C        0.66823    0.03407    0.17967    1.000
    H53      H        0.60543    0.98667    0.18307    1.000
    C124     C        0.79973    0.17777    0.18887    1.000
    H54      H        0.83173    0.23237    0.19947    1.000
    C125     C        0.66333    0.94967    0.13897    1.000
    O248     O        0.70473    0.17107    0.23847    1.000
    C126     C        0.66243    0.11217    0.22047    1.000
    O249     O        0.07273    0.95527    0.23917    1.000
    W70      W        0.04253    0.81512    0.25066    1.000
    W71      W        0.21887    0.02731    0.24661    1.000
    O250     O        0.59363    0.87597    0.14907    1.000
    O251     O        0.10513    0.05997    0.19387    1.000
    W72      W        0.13351    0.07477    0.30727    1.000
    O252     O        0.18763    0.03677    0.28347    1.000
    O253     O        0.66667    0.33333    0.11600    1.000
    O254     O        0.33333    0.66667    0.44933    1.000
    O255     O        0.00000    0.00000    0.78267    1.000
    O256     O        0.66667    0.33333    0.61600    1.000
    O257     O        0.33333    0.66667    0.94933    1.000
    O258     O        0.00000    0.00000    0.28267    1.000
