# CIF file generated by openbabel 3.1.0, see https://openbabel.org
data_I
_chemical_name_common 'image0'
_cell_length_a 9.638
_cell_length_b 15.443
_cell_length_c 18.717
_cell_angle_alpha 90
_cell_angle_beta 90
_cell_angle_gamma 90
_space_group_name_H-M_alt 'P 1'
_space_group_name_Hall 'P 1'
loop_
    _symmetry_equiv_pos_as_xyz
    x,y,z
loop_
    _atom_site_label
    _atom_site_type_symbol
    _atom_site_fract_x
    _atom_site_fract_y
    _atom_site_fract_z
    _atom_site_occupancy
    Cd1      Cd       0.11647    0.78310    0.93902    1.000
    C1       C        0.41810    0.85540    0.98340    1.000
    H1       H        0.35750    0.89270    0.00690    1.000
    C2       C        0.55700    0.86990    0.99090    1.000
    H2       H        0.58890    0.91620    0.01810    1.000
    C3       C        0.64890    0.81530    0.95770    1.000
    C4       C        0.59300    0.74850    0.91830    1.000
    H3       H        0.65140    0.70950    0.89530    1.000
    C5       C        0.45270    0.73900    0.91280    1.000
    H4       H        0.41830    0.69370    0.88520    1.000
    C6       C        0.80190    0.83110    0.96310    1.000
    C7       C        0.05070    0.82730    0.29940    1.000
    H5       H        0.99360    0.85340    0.33320    1.000
    C8       C        0.04640    0.85770    0.23060    1.000
    H6       H        0.99010    0.90440    0.21870    1.000
    C9       C        0.12570    0.81830    0.18000    1.000
    C10      C        0.20870    0.75030    0.20090    1.000
    H7       H        0.26310    0.72130    0.16760    1.000
    C11      C        0.21050    0.72560    0.27150    1.000
    H8       H        0.26930    0.68080    0.28520    1.000
    C12      C        0.11890    0.84720    0.10310    1.000
    N1       N        0.36350    0.79130    0.94480    1.000
    N2       N        0.13210    0.76270    0.32060    1.000
    N3       N        0.12120    0.92850    0.91490    1.000
    N4       N        0.17100    0.96320    0.86670    1.000
    N5       N        0.21500    0.99760    0.81810    1.000
    O1       O        0.10660    0.92590    0.09189    1.000
    O2       O        0.12880    0.78830    0.05798    1.000
    O3       O        0.83880    0.89290    0.00070    1.000
    O4       O        0.87950    0.78040    0.92967    1.000
    Cd2      Cd       0.88353    0.28310    0.56098    1.000
    C13      C        0.58190    0.35540    0.51660    1.000
    H9       H        0.64250    0.39270    0.49310    1.000
    C14      C        0.44300    0.36990    0.50910    1.000
    H10      H        0.41110    0.41620    0.48190    1.000
    C15      C        0.35110    0.31530    0.54230    1.000
    C16      C        0.40700    0.24850    0.58170    1.000
    H11      H        0.34860    0.20950    0.60470    1.000
    C17      C        0.54730    0.23900    0.58720    1.000
    H12      H        0.58170    0.19370    0.61480    1.000
    C18      C        0.19810    0.33110    0.53690    1.000
    C19      C        0.94930    0.32730    0.20060    1.000
    H13      H        0.00640    0.35340    0.16680    1.000
    C20      C        0.95360    0.35770    0.26940    1.000
    H14      H        0.00990    0.40440    0.28130    1.000
    C21      C        0.87430    0.31830    0.32000    1.000
    C22      C        0.79130    0.25030    0.29910    1.000
    H15      H        0.73690    0.22130    0.33240    1.000
    C23      C        0.78950    0.22560    0.22850    1.000
    H16      H        0.73070    0.18080    0.21480    1.000
    C24      C        0.88110    0.34720    0.39690    1.000
    N6       N        0.63650    0.29130    0.55520    1.000
    N7       N        0.86790    0.26270    0.17940    1.000
    N8       N        0.87880    0.42850    0.58510    1.000
    N9       N        0.82900    0.46320    0.63330    1.000
    N10      N        0.78500    0.49760    0.68190    1.000
    O5       O        0.89340    0.42590    0.40811    1.000
    O6       O        0.87120    0.28830    0.44202    1.000
    O7       O        0.16120    0.39290    0.49930    1.000
    O8       O        0.12050    0.28040    0.57033    1.000
    Cd3      Cd       0.88353    0.21690    0.06098    1.000
    C25      C        0.58190    0.14460    0.01660    1.000
    H17      H        0.64250    0.10730    0.99310    1.000
    C26      C        0.44300    0.13010    0.00910    1.000
    H18      H        0.41110    0.08380    0.98190    1.000
    C27      C        0.35110    0.18470    0.04230    1.000
    C28      C        0.40700    0.25150    0.08170    1.000
    H19      H        0.34860    0.29050    0.10470    1.000
    C29      C        0.54730    0.26100    0.08720    1.000
    H20      H        0.58170    0.30630    0.11480    1.000
    C30      C        0.19810    0.16890    0.03690    1.000
    C31      C        0.94930    0.17270    0.70060    1.000
    H21      H        0.00640    0.14660    0.66680    1.000
    C32      C        0.95360    0.14230    0.76940    1.000
    H22      H        0.00990    0.09560    0.78130    1.000
    C33      C        0.87430    0.18170    0.82000    1.000
    C34      C        0.79130    0.24970    0.79910    1.000
    H23      H        0.73690    0.27870    0.83240    1.000
    C35      C        0.78950    0.27440    0.72850    1.000
    H24      H        0.73070    0.31920    0.71480    1.000
    C36      C        0.88110    0.15280    0.89690    1.000
    N11      N        0.63650    0.20870    0.05520    1.000
    N12      N        0.86790    0.23730    0.67940    1.000
    N13      N        0.87880    0.07150    0.08510    1.000
    N14      N        0.82900    0.03680    0.13330    1.000
    N15      N        0.78500    0.00240    0.18190    1.000
    O9       O        0.89340    0.07410    0.90811    1.000
    O10      O        0.87120    0.21170    0.94202    1.000
    O11      O        0.16120    0.10710    0.99930    1.000
    O12      O        0.12050    0.21960    0.07033    1.000
    Cd4      Cd       0.11647    0.71690    0.43902    1.000
    C37      C        0.41810    0.64460    0.48340    1.000
    H25      H        0.35750    0.60730    0.50690    1.000
    C38      C        0.55700    0.63010    0.49090    1.000
    H26      H        0.58890    0.58380    0.51810    1.000
    C39      C        0.64890    0.68470    0.45770    1.000
    C40      C        0.59300    0.75150    0.41830    1.000
    H27      H        0.65140    0.79050    0.39530    1.000
    C41      C        0.45270    0.76100    0.41280    1.000
    H28      H        0.41830    0.80630    0.38520    1.000
    C42      C        0.80190    0.66890    0.46310    1.000
    C43      C        0.05070    0.67270    0.79940    1.000
    H29      H        0.99360    0.64660    0.83320    1.000
    C44      C        0.04640    0.64230    0.73060    1.000
    H30      H        0.99010    0.59560    0.71870    1.000
    C45      C        0.12570    0.68170    0.68000    1.000
    C46      C        0.20870    0.74970    0.70090    1.000
    H31      H        0.26310    0.77870    0.66760    1.000
    C47      C        0.21050    0.77440    0.77150    1.000
    H32      H        0.26930    0.81920    0.78520    1.000
    C48      C        0.11890    0.65280    0.60310    1.000
    N16      N        0.36350    0.70870    0.44480    1.000
    N17      N        0.13210    0.73730    0.82060    1.000
    N18      N        0.12120    0.57150    0.41490    1.000
    N19      N        0.17100    0.53680    0.36670    1.000
    N20      N        0.21500    0.50240    0.31810    1.000
    O13      O        0.10660    0.57410    0.59189    1.000
    O14      O        0.12880    0.71170    0.55798    1.000
    O15      O        0.83880    0.60710    0.50070    1.000
    O16      O        0.87950    0.71960    0.42967    1.000
    Cd5      Cd       0.00000    0.00000    0.00000    1.000
    Cd6      Cd       0.00000    0.50000    0.50000    1.000
