# CIF file generated by openbabel 3.1.0, see https://openbabel.org
data_I
_chemical_name_common 'image0'
_cell_length_a 14.0316
_cell_length_b 15.2564
_cell_length_c 17.7817
_cell_angle_alpha 90
_cell_angle_beta 102.405
_cell_angle_gamma 90
_space_group_name_H-M_alt 'P 1'
_space_group_name_Hall 'P 1'
loop_
    _symmetry_equiv_pos_as_xyz
    x,y,z
loop_
    _atom_site_label
    _atom_site_type_symbol
    _atom_site_fract_x
    _atom_site_fract_y
    _atom_site_fract_z
    _atom_site_occupancy
    U1       U        0.86978    0.16600    0.61374    1.000
    U2       U        0.61480    0.85378    0.89071    1.000
    O1       O        0.89170    0.05510    0.72164    1.000
    O2       O        0.97080    0.18030    0.74490    1.000
    O3       O        0.71130    0.97260    0.93993    1.000
    O4       O        0.86530    0.94900    0.00020    1.000
    O5       O        0.07040    0.80830    0.87070    1.000
    O6       O        0.05190    0.88380    0.97342    1.000
    O7       O        0.78750    0.04100    0.56269    1.000
    O8       O        0.63440    0.05270    0.49850    1.000
    O9       O        0.61050    0.95530    0.77898    1.000
    O10      O        0.51430    0.83940    0.76132    1.000
    O11      O        0.46010    0.21940    0.61110    1.000
    O12      O        0.44870    0.11920    0.52026    1.000
    N1       N        0.93960    0.00950    0.88272    1.000
    N2       N        0.55890    0.99890    0.61755    1.000
    C1       C        0.98660    0.08320    0.85100    1.000
    H1       H        0.05680    0.06930    0.85720    1.000
    H2       H        0.98180    0.13580    0.88260    1.000
    C2       C        0.94660    0.10660    0.76740    1.000
    C3       C        0.83530    0.02550    0.87950    1.000
    H3       H        0.79630    0.00430    0.82970    1.000
    H4       H        0.82380    0.08930    0.88300    1.000
    C4       C        0.80240    0.97840    0.94570    1.000
    C5       C        0.95750    0.92300    0.84920    1.000
    H5       H        0.98000    0.93290    0.80070    1.000
    H6       H        0.89530    0.89010    0.83630    1.000
    C6       C        0.03280    0.86830    0.90330    1.000
    C7       C        0.66400    0.98330    0.62200    1.000
    H7       H        0.67620    0.91960    0.61930    1.000
    H8       H        0.70230    0.00540    0.67170    1.000
    C8       C        0.69590    0.02980    0.55580    1.000
    C9       C        0.51170    0.92670    0.65120    1.000
    H9       H        0.51850    0.87260    0.62210    1.000
    H10      H        0.44110    0.93980    0.64270    1.000
    C10      C        0.54830    0.90720    0.73600    1.000
    C11      C        0.54020    0.08710    0.64850    1.000
    H11      H        0.60330    0.11640    0.66900    1.000
    H12      H        0.50650    0.07930    0.69160    1.000
    C12      C        0.47850    0.14490    0.58770    1.000
    U3       U        0.13022    0.66600    0.88626    1.000
    U4       U        0.38520    0.35378    0.60929    1.000
    O13      O        0.10830    0.55510    0.77836    1.000
    O14      O        0.02920    0.68030    0.75510    1.000
    O15      O        0.28870    0.47260    0.56007    1.000
    O16      O        0.13470    0.44900    0.49980    1.000
    O17      O        0.92960    0.30830    0.62930    1.000
    O18      O        0.94810    0.38380    0.52658    1.000
    O19      O        0.21250    0.54100    0.93731    1.000
    O20      O        0.36560    0.55270    0.00150    1.000
    O21      O        0.38950    0.45530    0.72102    1.000
    O22      O        0.48570    0.33940    0.73868    1.000
    O23      O        0.53990    0.71940    0.88890    1.000
    O24      O        0.55130    0.61920    0.97974    1.000
    N3       N        0.06040    0.50950    0.61728    1.000
    N4       N        0.44110    0.49890    0.88245    1.000
    C13      C        0.01340    0.58320    0.64900    1.000
    H13      H        0.94320    0.56930    0.64280    1.000
    H14      H        0.01820    0.63580    0.61740    1.000
    C14      C        0.05340    0.60660    0.73260    1.000
    C15      C        0.16470    0.52550    0.62050    1.000
    H15      H        0.20370    0.50430    0.67030    1.000
    H16      H        0.17620    0.58930    0.61700    1.000
    C16      C        0.19760    0.47840    0.55430    1.000
    C17      C        0.04250    0.42300    0.65080    1.000
    H17      H        0.02000    0.43290    0.69930    1.000
    H18      H        0.10470    0.39010    0.66370    1.000
    C18      C        0.96720    0.36830    0.59670    1.000
    C19      C        0.33600    0.48330    0.87800    1.000
    H19      H        0.32380    0.41960    0.88070    1.000
    H20      H        0.29770    0.50540    0.82830    1.000
    C20      C        0.30410    0.52980    0.94420    1.000
    C21      C        0.48830    0.42670    0.84880    1.000
    H21      H        0.48150    0.37260    0.87790    1.000
    H22      H        0.55890    0.43980    0.85730    1.000
    C22      C        0.45170    0.40720    0.76400    1.000
    C23      C        0.45980    0.58710    0.85150    1.000
    H23      H        0.39670    0.61640    0.83100    1.000
    H24      H        0.49350    0.57930    0.80840    1.000
    C24      C        0.52150    0.64490    0.91230    1.000
    U5       U        0.13022    0.83400    0.38626    1.000
    U6       U        0.38520    0.14622    0.10929    1.000
    O25      O        0.10830    0.94490    0.27836    1.000
    O26      O        0.02920    0.81970    0.25510    1.000
    O27      O        0.28870    0.02740    0.06007    1.000
    O28      O        0.13470    0.05100    0.99980    1.000
    O29      O        0.92960    0.19170    0.12930    1.000
    O30      O        0.94810    0.11620    0.02658    1.000
    O31      O        0.21250    0.95900    0.43731    1.000
    O32      O        0.36560    0.94730    0.50150    1.000
    O33      O        0.38950    0.04470    0.22102    1.000
    O34      O        0.48570    0.16060    0.23868    1.000
    O35      O        0.53990    0.78060    0.38890    1.000
    O36      O        0.55130    0.88080    0.47974    1.000
    N5       N        0.06040    0.99050    0.11728    1.000
    N6       N        0.44110    0.00110    0.38245    1.000
    C25      C        0.01340    0.91680    0.14900    1.000
    H25      H        0.94320    0.93070    0.14280    1.000
    H26      H        0.01820    0.86420    0.11740    1.000
    C26      C        0.05340    0.89340    0.23260    1.000
    C27      C        0.16470    0.97450    0.12050    1.000
    H27      H        0.20370    0.99570    0.17030    1.000
    H28      H        0.17620    0.91070    0.11700    1.000
    C28      C        0.19760    0.02160    0.05430    1.000
    C29      C        0.04250    0.07700    0.15080    1.000
    H29      H        0.02000    0.06710    0.19930    1.000
    H30      H        0.10470    0.10990    0.16370    1.000
    C30      C        0.96720    0.13170    0.09670    1.000
    C31      C        0.33600    0.01670    0.37800    1.000
    H31      H        0.32380    0.08040    0.38070    1.000
    H32      H        0.29770    0.99460    0.32830    1.000
    C32      C        0.30410    0.97020    0.44420    1.000
    C33      C        0.48830    0.07330    0.34880    1.000
    H33      H        0.48150    0.12740    0.37790    1.000
    H34      H        0.55890    0.06020    0.35730    1.000
    C34      C        0.45170    0.09280    0.26400    1.000
    C35      C        0.45980    0.91290    0.35150    1.000
    H35      H        0.39670    0.88360    0.33100    1.000
    H36      H        0.49350    0.92070    0.30840    1.000
    C36      C        0.52150    0.85510    0.41230    1.000
    U7       U        0.86978    0.33400    0.11374    1.000
    U8       U        0.61480    0.64622    0.39071    1.000
    O37      O        0.89170    0.44490    0.22164    1.000
    O38      O        0.97080    0.31970    0.24490    1.000
    O39      O        0.71130    0.52740    0.43993    1.000
    O40      O        0.86530    0.55100    0.50020    1.000
    O41      O        0.07040    0.69170    0.37070    1.000
    O42      O        0.05190    0.61620    0.47342    1.000
    O43      O        0.78750    0.45900    0.06269    1.000
    O44      O        0.63440    0.44730    0.99850    1.000
    O45      O        0.61050    0.54470    0.27898    1.000
    O46      O        0.51430    0.66060    0.26132    1.000
    O47      O        0.46010    0.28060    0.11110    1.000
    O48      O        0.44870    0.38080    0.02026    1.000
    N7       N        0.93960    0.49050    0.38272    1.000
    N8       N        0.55890    0.50110    0.11755    1.000
    C37      C        0.98660    0.41680    0.35100    1.000
    H37      H        0.05680    0.43070    0.35720    1.000
    H38      H        0.98180    0.36420    0.38260    1.000
    C38      C        0.94660    0.39340    0.26740    1.000
    C39      C        0.83530    0.47450    0.37950    1.000
    H39      H        0.79630    0.49570    0.32970    1.000
    H40      H        0.82380    0.41070    0.38300    1.000
    C40      C        0.80240    0.52160    0.44570    1.000
    C41      C        0.95750    0.57700    0.34920    1.000
    H41      H        0.98000    0.56710    0.30070    1.000
    H42      H        0.89530    0.60990    0.33630    1.000
    C42      C        0.03280    0.63170    0.40330    1.000
    C43      C        0.66400    0.51670    0.12200    1.000
    H43      H        0.67620    0.58040    0.11930    1.000
    H44      H        0.70230    0.49460    0.17170    1.000
    C44      C        0.69590    0.47020    0.05580    1.000
    C45      C        0.51170    0.57330    0.15120    1.000
    H45      H        0.51850    0.62740    0.12210    1.000
    H46      H        0.44110    0.56020    0.14270    1.000
    C46      C        0.54830    0.59280    0.23600    1.000
    C47      C        0.54020    0.41290    0.14850    1.000
    H47      H        0.60330    0.38360    0.16900    1.000
    H48      H        0.50650    0.42070    0.19160    1.000
    C48      C        0.47850    0.35510    0.08770    1.000
    Ni1      Ni       0.00000    0.00000    0.00000    1.000
    Ni2      Ni       0.00000    0.50000    0.50000    1.000
    Ni3      Ni       0.50000    0.00000    0.50000    1.000
    Ni4      Ni       0.50000    0.50000    0.00000    1.000
