# CIF file generated by openbabel 3.1.0, see https://openbabel.org
data_I
_chemical_name_common 'image0'
_cell_length_a 15.1496
_cell_length_b 15.1496
_cell_length_c 18.6597
_cell_angle_alpha 90
_cell_angle_beta 90
_cell_angle_gamma 90
_space_group_name_H-M_alt 'P 1'
_space_group_name_Hall 'P 1'
loop_
    _symmetry_equiv_pos_as_xyz
    x,y,z
loop_
    _atom_site_label
    _atom_site_type_symbol
    _atom_site_fract_x
    _atom_site_fract_y
    _atom_site_fract_z
    _atom_site_occupancy
    O1       O        0.61070    0.56700    0.06370    1.000
    C1       C        0.74810    0.68530    0.06450    1.000
    C2       C        0.53120    0.41390    0.21080    1.000
    C3       C        0.58280    0.45370    0.20390    1.000
    O2       O        0.11070    0.06700    0.56370    1.000
    C4       C        0.24810    0.18530    0.56450    1.000
    C5       C        0.03120    0.91390    0.71080    1.000
    C6       C        0.08280    0.95370    0.70390    1.000
    O3       O        0.38930    0.43300    0.06370    1.000
    C7       C        0.25190    0.31470    0.06450    1.000
    C8       C        0.46880    0.58610    0.21080    1.000
    C9       C        0.41720    0.54630    0.20390    1.000
    O4       O        0.88930    0.93300    0.56370    1.000
    C10      C        0.75190    0.81470    0.56450    1.000
    C11      C        0.96880    0.08610    0.71080    1.000
    C12      C        0.91720    0.04630    0.70390    1.000
    O5       O        0.43300    0.61070    0.06370    1.000
    C13      C        0.31470    0.74810    0.06450    1.000
    C14      C        0.58610    0.53120    0.21080    1.000
    C15      C        0.54630    0.58280    0.20390    1.000
    O6       O        0.93300    0.11070    0.56370    1.000
    C16      C        0.81470    0.24810    0.56450    1.000
    C17      C        0.08610    0.03120    0.71080    1.000
    C18      C        0.04630    0.08280    0.70390    1.000
    O7       O        0.56700    0.38930    0.06370    1.000
    C19      C        0.68530    0.25190    0.06450    1.000
    C20      C        0.41390    0.46880    0.21080    1.000
    C21      C        0.45370    0.41720    0.20390    1.000
    O8       O        0.06700    0.88930    0.56370    1.000
    C22      C        0.18530    0.75190    0.56450    1.000
    C23      C        0.91390    0.96880    0.71080    1.000
    C24      C        0.95370    0.91720    0.70390    1.000
    O9       O        0.38930    0.56700    0.43630    1.000
    C25      C        0.25190    0.68530    0.43550    1.000
    C26      C        0.46880    0.41390    0.28920    1.000
    C27      C        0.41720    0.45370    0.29610    1.000
    O10      O        0.88930    0.06700    0.93630    1.000
    C28      C        0.75190    0.18530    0.93550    1.000
    C29      C        0.96880    0.91390    0.78920    1.000
    C30      C        0.91720    0.95370    0.79610    1.000
    O11      O        0.61070    0.43300    0.43630    1.000
    C31      C        0.74810    0.31470    0.43550    1.000
    C32      C        0.53120    0.58610    0.28920    1.000
    C33      C        0.58280    0.54630    0.29610    1.000
    O12      O        0.11070    0.93300    0.93630    1.000
    C34      C        0.24810    0.81470    0.93550    1.000
    C35      C        0.03120    0.08610    0.78920    1.000
    C36      C        0.08280    0.04630    0.79610    1.000
    O13      O        0.56700    0.61070    0.43630    1.000
    C37      C        0.68530    0.74810    0.43550    1.000
    C38      C        0.41390    0.53120    0.28920    1.000
    C39      C        0.45370    0.58280    0.29610    1.000
    O14      O        0.06700    0.11070    0.93630    1.000
    C40      C        0.18530    0.24810    0.93550    1.000
    C41      C        0.91390    0.03120    0.78920    1.000
    C42      C        0.95370    0.08280    0.79610    1.000
    O15      O        0.43300    0.38930    0.43630    1.000
    C43      C        0.31470    0.25190    0.43550    1.000
    C44      C        0.58610    0.46880    0.28920    1.000
    C45      C        0.54630    0.41720    0.29610    1.000
    O16      O        0.93300    0.88930    0.93630    1.000
    C46      C        0.81470    0.75190    0.93550    1.000
    C47      C        0.08610    0.96880    0.78920    1.000
    C48      C        0.04630    0.91720    0.79610    1.000
    O17      O        0.38930    0.43300    0.93630    1.000
    C49      C        0.25190    0.31470    0.93550    1.000
    C50      C        0.46880    0.58610    0.78920    1.000
    C51      C        0.41720    0.54630    0.79610    1.000
    O18      O        0.88930    0.93300    0.43630    1.000
    C52      C        0.75190    0.81470    0.43550    1.000
    C53      C        0.96880    0.08610    0.28920    1.000
    C54      C        0.91720    0.04630    0.29610    1.000
    O19      O        0.61070    0.56700    0.93630    1.000
    C55      C        0.74810    0.68530    0.93550    1.000
    C56      C        0.53120    0.41390    0.78920    1.000
    C57      C        0.58280    0.45370    0.79610    1.000
    O20      O        0.11070    0.06700    0.43630    1.000
    C58      C        0.24810    0.18530    0.43550    1.000
    C59      C        0.03120    0.91390    0.28920    1.000
    C60      C        0.08280    0.95370    0.29610    1.000
    O21      O        0.56700    0.38930    0.93630    1.000
    C61      C        0.68530    0.25190    0.93550    1.000
    C62      C        0.41390    0.46880    0.78920    1.000
    C63      C        0.45370    0.41720    0.79610    1.000
    O22      O        0.06700    0.88930    0.43630    1.000
    C64      C        0.18530    0.75190    0.43550    1.000
    C65      C        0.91390    0.96880    0.28920    1.000
    C66      C        0.95370    0.91720    0.29610    1.000
    O23      O        0.43300    0.61070    0.93630    1.000
    C67      C        0.31470    0.74810    0.93550    1.000
    C68      C        0.58610    0.53120    0.78920    1.000
    C69      C        0.54630    0.58280    0.79610    1.000
    O24      O        0.93300    0.11070    0.43630    1.000
    C70      C        0.81470    0.24810    0.43550    1.000
    C71      C        0.08610    0.03120    0.28920    1.000
    C72      C        0.04630    0.08280    0.29610    1.000
    O25      O        0.61070    0.43300    0.56370    1.000
    C73      C        0.74810    0.31470    0.56450    1.000
    C74      C        0.53120    0.58610    0.71080    1.000
    C75      C        0.58280    0.54630    0.70390    1.000
    O26      O        0.11070    0.93300    0.06370    1.000
    C76      C        0.24810    0.81470    0.06450    1.000
    C77      C        0.03120    0.08610    0.21080    1.000
    C78      C        0.08280    0.04630    0.20390    1.000
    O27      O        0.38930    0.56700    0.56370    1.000
    C79      C        0.25190    0.68530    0.56450    1.000
    C80      C        0.46880    0.41390    0.71080    1.000
    C81      C        0.41720    0.45370    0.70390    1.000
    O28      O        0.88930    0.06700    0.06370    1.000
    C82      C        0.75190    0.18530    0.06450    1.000
    C83      C        0.96880    0.91390    0.21080    1.000
    C84      C        0.91720    0.95370    0.20390    1.000
    O29      O        0.43300    0.38930    0.56370    1.000
    C85      C        0.31470    0.25190    0.56450    1.000
    C86      C        0.58610    0.46880    0.71080    1.000
    C87      C        0.54630    0.41720    0.70390    1.000
    O30      O        0.93300    0.88930    0.06370    1.000
    C88      C        0.81470    0.75190    0.06450    1.000
    C89      C        0.08610    0.96880    0.21080    1.000
    C90      C        0.04630    0.91720    0.20390    1.000
    O31      O        0.56700    0.61070    0.56370    1.000
    C91      C        0.68530    0.74810    0.56450    1.000
    C92      C        0.41390    0.53120    0.71080    1.000
    C93      C        0.45370    0.58280    0.70390    1.000
    O32      O        0.06700    0.11070    0.06370    1.000
    C94      C        0.18530    0.24810    0.06450    1.000
    C95      C        0.91390    0.03120    0.21080    1.000
    C96      C        0.95370    0.08280    0.20390    1.000
    Ni1      Ni       0.50000    0.50000    0.07190    1.000
    N1       N        0.50000    0.50000    0.18190    1.000
    Ni2      Ni       0.00000    0.00000    0.57190    1.000
    N2       N        0.00000    0.00000    0.68190    1.000
    Ni3      Ni       0.50000    0.50000    0.42810    1.000
    N3       N        0.50000    0.50000    0.31810    1.000
    Ni4      Ni       0.00000    0.00000    0.92810    1.000
    N4       N        0.00000    0.00000    0.81810    1.000
    Ni5      Ni       0.50000    0.50000    0.92810    1.000
    N5       N        0.50000    0.50000    0.81810    1.000
    Ni6      Ni       0.00000    0.00000    0.42810    1.000
    N6       N        0.00000    0.00000    0.31810    1.000
    Ni7      Ni       0.50000    0.50000    0.57190    1.000
    N7       N        0.50000    0.50000    0.68190    1.000
    Ni8      Ni       0.00000    0.00000    0.07190    1.000
    N8       N        0.00000    0.00000    0.18190    1.000
    C97      C        0.63470    0.58970    0.00000    1.000
    C98      C        0.71460    0.65290    0.00000    1.000
    C99      C        0.13470    0.08970    0.50000    1.000
    C100     C        0.21460    0.15290    0.50000    1.000
    C101     C        0.36530    0.41030    0.00000    1.000
    C102     C        0.28540    0.34710    0.00000    1.000
    C103     C        0.86530    0.91030    0.50000    1.000
    C104     C        0.78540    0.84710    0.50000    1.000
    C105     C        0.41030    0.63470    0.00000    1.000
    C106     C        0.34710    0.71460    0.00000    1.000
    C107     C        0.91030    0.13470    0.50000    1.000
    C108     C        0.84710    0.21460    0.50000    1.000
    C109     C        0.58970    0.36530    0.00000    1.000
    C110     C        0.65290    0.28540    0.00000    1.000
    C111     C        0.08970    0.86530    0.50000    1.000
    C112     C        0.15290    0.78540    0.50000    1.000
    C113     C        0.36530    0.58970    0.50000    1.000
    C114     C        0.28540    0.65290    0.50000    1.000
    C115     C        0.86530    0.08970    0.00000    1.000
    C116     C        0.78540    0.15290    0.00000    1.000
    C117     C        0.63470    0.41030    0.50000    1.000
    C118     C        0.71460    0.34710    0.50000    1.000
    C119     C        0.13470    0.91030    0.00000    1.000
    C120     C        0.21460    0.84710    0.00000    1.000
    C121     C        0.58970    0.63470    0.50000    1.000
    C122     C        0.65290    0.71460    0.50000    1.000
    C123     C        0.08970    0.13470    0.00000    1.000
    C124     C        0.15290    0.21460    0.00000    1.000
    C125     C        0.41030    0.36530    0.50000    1.000
    C126     C        0.34710    0.28540    0.50000    1.000
    C127     C        0.91030    0.86530    0.00000    1.000
    C128     C        0.84710    0.78540    0.00000    1.000
