# CIF file generated by openbabel 3.1.0, see https://openbabel.org
data_I
_chemical_name_common 'image0'
_cell_length_a 15.141
_cell_length_b 15.141
_cell_length_c 9.3313
_cell_angle_alpha 90
_cell_angle_beta 90
_cell_angle_gamma 120
_space_group_name_H-M_alt 'P 1'
_space_group_name_Hall 'P 1'
loop_
    _symmetry_equiv_pos_as_xyz
    x,y,z
loop_
    _atom_site_label
    _atom_site_type_symbol
    _atom_site_fract_x
    _atom_site_fract_y
    _atom_site_fract_z
    _atom_site_occupancy
    Co1      Co       0.47894    0.36502    0.29865    1.000
    P1       P        0.49458    0.30724    0.62830    1.000
    H1       H        0.43140    0.34400    0.62800    1.000
    O1       O        0.53540    0.32140    0.47520    1.000
    O2       O        0.57890    0.37150    0.73490    1.000
    O3       O        0.43210    0.19620    0.67280    1.000
    O4       O        0.31190    0.37980    0.92800    1.000
    H2       H        0.21060    0.22610    0.26110    1.000
    H3       H        0.18470    0.23520    0.42110    1.000
    H4       H        0.24490    0.17890    0.38360    1.000
    Co2      Co       0.63498    0.11392    0.29865    1.000
    P2       P        0.69276    0.18734    0.62830    1.000
    H5       H        0.65600    0.08740    0.62800    1.000
    O5       O        0.67860    0.21400    0.47520    1.000
    O6       O        0.62850    0.20740    0.73490    1.000
    O7       O        0.80380    0.23590    0.67280    1.000
    O8       O        0.62020    0.93210    0.92800    1.000
    H6       H        0.77390    0.98450    0.26110    1.000
    H7       H        0.76480    0.94950    0.42110    1.000
    H8       H        0.82110    0.06600    0.38360    1.000
    Co3      Co       0.88608    0.52106    0.29865    1.000
    P3       P        0.81266    0.50542    0.62830    1.000
    H9       H        0.91260    0.56860    0.62800    1.000
    O9       O        0.78600    0.46460    0.47520    1.000
    O10      O        0.79260    0.42110    0.73490    1.000
    O11      O        0.76410    0.56790    0.67280    1.000
    O12      O        0.06790    0.68810    0.92800    1.000
    H10      H        0.01550    0.78940    0.26110    1.000
    H11      H        0.05050    0.81530    0.42110    1.000
    H12      H        0.93400    0.75510    0.38360    1.000
    Co4      Co       0.52106    0.63498    0.79865    1.000
    P4       P        0.50542    0.69276    0.12830    1.000
    H13      H        0.56860    0.65600    0.12800    1.000
    O13      O        0.46460    0.67860    0.97520    1.000
    O14      O        0.42110    0.62850    0.23490    1.000
    O15      O        0.56790    0.80380    0.17280    1.000
    O16      O        0.68810    0.62020    0.42800    1.000
    H14      H        0.78940    0.77390    0.76110    1.000
    H15      H        0.81530    0.76480    0.92110    1.000
    H16      H        0.75510    0.82110    0.88360    1.000
    Co5      Co       0.36502    0.88608    0.79865    1.000
    P5       P        0.30724    0.81266    0.12830    1.000
    H17      H        0.34400    0.91260    0.12800    1.000
    O17      O        0.32140    0.78600    0.97520    1.000
    O18      O        0.37150    0.79260    0.23490    1.000
    O19      O        0.19620    0.76410    0.17280    1.000
    O20      O        0.37980    0.06790    0.42800    1.000
    H18      H        0.22610    0.01550    0.76110    1.000
    H19      H        0.23520    0.05050    0.92110    1.000
    H20      H        0.17890    0.93400    0.88360    1.000
    Co6      Co       0.11392    0.47894    0.79865    1.000
    P6       P        0.18734    0.49458    0.12830    1.000
    H21      H        0.08740    0.43140    0.12800    1.000
    O21      O        0.21400    0.53540    0.97520    1.000
    O22      O        0.20740    0.57890    0.23490    1.000
    O23      O        0.23590    0.43210    0.17280    1.000
    O24      O        0.93210    0.31190    0.42800    1.000
    H22      H        0.98450    0.21060    0.76110    1.000
    H23      H        0.94950    0.18470    0.92110    1.000
    H24      H        0.06600    0.24490    0.88360    1.000
    Co7      Co       0.63498    0.52106    0.79865    1.000
    P7       P        0.69276    0.50542    0.12830    1.000
    H25      H        0.65600    0.56860    0.12800    1.000
    O25      O        0.67860    0.46460    0.97520    1.000
    O26      O        0.62850    0.42110    0.23490    1.000
    O27      O        0.80380    0.56790    0.17280    1.000
    O28      O        0.62020    0.68810    0.42800    1.000
    H26      H        0.77390    0.78940    0.76110    1.000
    H27      H        0.76480    0.81530    0.92110    1.000
    H28      H        0.82110    0.75510    0.88360    1.000
    Co8      Co       0.88608    0.36502    0.79865    1.000
    P8       P        0.81266    0.30724    0.12830    1.000
    H29      H        0.91260    0.34400    0.12800    1.000
    O29      O        0.78600    0.32140    0.97520    1.000
    O30      O        0.79260    0.37150    0.23490    1.000
    O31      O        0.76410    0.19620    0.17280    1.000
    O32      O        0.06790    0.37980    0.42800    1.000
    H30      H        0.01550    0.22610    0.76110    1.000
    H31      H        0.05050    0.23520    0.92110    1.000
    H32      H        0.93400    0.17890    0.88360    1.000
    Co9      Co       0.47894    0.11392    0.79865    1.000
    P9       P        0.49458    0.18734    0.12830    1.000
    H33      H        0.43140    0.08740    0.12800    1.000
    O33      O        0.53540    0.21400    0.97520    1.000
    O34      O        0.57890    0.20740    0.23490    1.000
    O35      O        0.43210    0.23590    0.17280    1.000
    O36      O        0.31190    0.93210    0.42800    1.000
    H34      H        0.21060    0.98450    0.76110    1.000
    H35      H        0.18470    0.94950    0.92110    1.000
    H36      H        0.24490    0.06600    0.88360    1.000
    Co10     Co       0.36502    0.47894    0.29865    1.000
    P10      P        0.30724    0.49458    0.62830    1.000
    H37      H        0.34400    0.43140    0.62800    1.000
    O37      O        0.32140    0.53540    0.47520    1.000
    O38      O        0.37150    0.57890    0.73490    1.000
    O39      O        0.19620    0.43210    0.67280    1.000
    O40      O        0.37980    0.31190    0.92800    1.000
    H38      H        0.22610    0.21060    0.26110    1.000
    H39      H        0.23520    0.18470    0.42110    1.000
    H40      H        0.17890    0.24490    0.38360    1.000
    Co11     Co       0.11392    0.63498    0.29865    1.000
    P11      P        0.18734    0.69276    0.62830    1.000
    H41      H        0.08740    0.65600    0.62800    1.000
    O41      O        0.21400    0.67860    0.47520    1.000
    O42      O        0.20740    0.62850    0.73490    1.000
    O43      O        0.23590    0.80380    0.67280    1.000
    O44      O        0.93210    0.62020    0.92800    1.000
    H42      H        0.98450    0.77390    0.26110    1.000
    H43      H        0.94950    0.76480    0.42110    1.000
    H44      H        0.06600    0.82110    0.38360    1.000
    Co12     Co       0.52106    0.88608    0.29865    1.000
    P12      P        0.50542    0.81266    0.62830    1.000
    H45      H        0.56860    0.91260    0.62800    1.000
    O45      O        0.46460    0.78600    0.47520    1.000
    O46      O        0.42110    0.79260    0.73490    1.000
    O47      O        0.56790    0.76410    0.67280    1.000
    O48      O        0.68810    0.06790    0.92800    1.000
    H46      H        0.78940    0.01550    0.26110    1.000
    H47      H        0.81530    0.05050    0.42110    1.000
    H48      H        0.75510    0.93400    0.38360    1.000
    Co13     Co       0.66667    0.33333    0.37240    1.000
    Co14     Co       0.33333    0.66667    0.87240    1.000
    Co15     Co       0.66667    0.33333    0.87240    1.000
    Co16     Co       0.33333    0.66667    0.37240    1.000
    P13      P        0.41200    0.41200    0.97590    1.000
    O49      O        0.42680    0.42680    0.13340    1.000
    O50      O        0.32730    0.32730    0.37110    1.000
    O51      O        0.49550    0.49550    0.88910    1.000
    C1       C        0.23440    0.23440    0.35820    1.000
    P14      P        0.58800    0.00000    0.97590    1.000
    O52      O        0.57320    0.00000    0.13340    1.000
    O53      O        0.67270    0.00000    0.37110    1.000
    O54      O        0.50450    0.00000    0.88910    1.000
    C2       C        0.76560    0.00000    0.35820    1.000
    P15      P        0.00000    0.58800    0.97590    1.000
    O55      O        0.00000    0.57320    0.13340    1.000
    O56      O        0.00000    0.67270    0.37110    1.000
    O57      O        0.00000    0.50450    0.88910    1.000
    C3       C        0.00000    0.76560    0.35820    1.000
    P16      P        0.58800    0.58800    0.47590    1.000
    O58      O        0.57320    0.57320    0.63340    1.000
    O59      O        0.67270    0.67270    0.87110    1.000
    O60      O        0.50450    0.50450    0.38910    1.000
    C4       C        0.76560    0.76560    0.85820    1.000
    P17      P        0.41200    0.00000    0.47590    1.000
    O61      O        0.42680    0.00000    0.63340    1.000
    O62      O        0.32730    0.00000    0.87110    1.000
    O63      O        0.49550    0.00000    0.38910    1.000
    C5       C        0.23440    0.00000    0.85820    1.000
    P18      P        0.00000    0.41200    0.47590    1.000
    O64      O        0.00000    0.42680    0.63340    1.000
    O65      O        0.00000    0.32730    0.87110    1.000
    O66      O        0.00000    0.49550    0.38910    1.000
    C6       C        0.00000    0.23440    0.85820    1.000
