# CIF file generated by openbabel 3.1.0, see https://openbabel.org
data_I
_chemical_name_common 'QOFLAA_clean'
_cell_length_a 15.7211
_cell_length_b 15.7211
_cell_length_c 15.7211
_cell_angle_alpha 70.1062
_cell_angle_beta 71.3706
_cell_angle_gamma 109.894
_space_group_name_H-M_alt 'P 1'
_space_group_name_Hall 'P 1'
loop_
    _symmetry_equiv_pos_as_xyz
    x,y,z
loop_
    _atom_site_label
    _atom_site_type_symbol
    _atom_site_fract_x
    _atom_site_fract_y
    _atom_site_fract_z
    _atom_site_occupancy
    Cu1      Cu       0.90079    0.04940    0.53577    1.000
    Cu2      Cu       0.96423    0.56344    0.58517    1.000
    Cu3      Cu       0.35139    0.93656    0.59921    1.000
    Cu4      Cu       0.91483    0.45060    0.14861    1.000
    Cu5      Cu       0.08517    0.54940    0.85139    1.000
    Cu6      Cu       0.64861    0.06344    0.40079    1.000
    Cu7      Cu       0.03577    0.43656    0.41483    1.000
    Cu8      Cu       0.09921    0.95060    0.46423    1.000
    H1       H        0.71470    0.39440    0.11830    1.000
    H2       H        0.38170    0.16700    0.51270    1.000
    H3       H        0.98730    0.10560    0.67970    1.000
    H4       H        0.61830    0.83300    0.48730    1.000
    H5       H        0.27730    0.56550    0.05180    1.000
    H6       H        0.21180    0.82910    0.22270    1.000
    H7       H        0.01270    0.89440    0.32030    1.000
    H8       H        0.82030    0.33300    0.78530    1.000
    H9       H        0.44820    0.67090    0.61730    1.000
    H10      H        0.28530    0.60560    0.88170    1.000
    H11      H        0.11730    0.06550    0.71180    1.000
    H12      H        0.72270    0.43450    0.94820    1.000
    H13      H        0.88270    0.93450    0.28820    1.000
    H14      H        0.17970    0.66700    0.21470    1.000
    H15      H        0.55180    0.32910    0.38270    1.000
    H16      H        0.78820    0.17090    0.77730    1.000
    C1       C        0.27990    0.72360    0.69030    1.000
    C2       C        0.09230    0.05430    0.66820    1.000
    C3       C        0.19030    0.97020    0.58610    1.000
    C4       C        0.55600    0.83040    0.52040    1.000
    C5       C        0.60780    0.22540    0.38120    1.000
    C6       C        0.89340    0.27460    0.61760    1.000
    C7       C        0.44400    0.16960    0.47960    1.000
    C8       C        0.77750    0.44570    0.96200    1.000
    C9       C        0.90770    0.94570    0.33180    1.000
    C10      C        0.85080    0.33040    0.72560    1.000
    C11      C        0.97960    0.92360    0.35080    1.000
    C12      C        0.11880    0.01100    0.60660    1.000
    C13      C        0.22250    0.55430    0.03800    1.000
    C14      C        0.10660    0.72540    0.38240    1.000
    C15      C        0.11760    0.51100    0.10780    1.000
    C16      C        0.16820    0.76050    0.27750    1.000
    C17      C        0.53800    0.26050    0.40770    1.000
    C18      C        0.91390    0.22360    0.55630    1.000
    C19      C        0.08610    0.77640    0.44370    1.000
    C20      C        0.46200    0.73950    0.59230    1.000
    C21      C        0.80970    0.02980    0.41390    1.000
    C22      C        0.02040    0.07640    0.64920    1.000
    C23      C        0.94370    0.52980    0.77990    1.000
    C24      C        0.83180    0.23950    0.72250    1.000
    C25      C        0.22560    0.57640    0.94400    1.000
    C26      C        0.77440    0.42360    0.05600    1.000
    C27      C        0.88240    0.48900    0.89220    1.000
    C28      C        0.72010    0.27640    0.30970    1.000
    C29      C        0.88120    0.98900    0.39340    1.000
    C30      C        0.05630    0.47020    0.22010    1.000
    C31      C        0.39220    0.77460    0.61880    1.000
    C32      C        0.14920    0.66960    0.27440    1.000
    N1       N        0.12940    0.54960    0.95520    1.000
    N2       N        0.55630    0.11900    0.43490    1.000
    N3       N        0.05390    0.61900    0.43730    1.000
    N4       N        0.00480    0.04960    0.57980    1.000
    N5       N        0.93730    0.49120    0.94370    1.000
    N6       N        0.54480    0.91540    0.50480    1.000
    N7       N        0.06510    0.00880    0.55390    1.000
    N8       N        0.99520    0.95040    0.42020    1.000
    N9       N        0.87060    0.45040    0.04480    1.000
    N10      N        0.07980    0.58460    0.37060    1.000
    N11      N        0.06270    0.50880    0.05630    1.000
    N12      N        0.45520    0.08460    0.49520    1.000
    N13      N        0.93490    0.99120    0.44610    1.000
    N14      N        0.94610    0.38100    0.56270    1.000
    N15      N        0.92020    0.41540    0.62940    1.000
    N16      N        0.44370    0.88100    0.56510    1.000
    O1       O        0.24227    0.97170    0.63253    1.000
    O2       O        0.80446    0.05990    0.47864    1.000
    O3       O        0.10423    0.47170    0.27057    1.000
    O4       O        0.75773    0.02830    0.36747    1.000
    O5       O        0.02136    0.71690    0.53854    1.000
    O6       O        0.19554    0.94010    0.52136    1.000
    O7       O        0.96146    0.44010    0.25544    1.000
    O8       O        0.13253    0.87480    0.39577    1.000
    O9       O        0.24456    0.78310    0.69554    1.000
    O10      O        0.03854    0.55990    0.74456    1.000
    O11      O        0.75544    0.21690    0.30446    1.000
    O12      O        0.97864    0.28310    0.46146    1.000
    O13      O        0.77057    0.37480    0.25773    1.000
    O14      O        0.22943    0.62520    0.74227    1.000
    O15      O        0.89577    0.52830    0.72943    1.000
    O16      O        0.86747    0.12520    0.60423    1.000
