# CIF file generated by openbabel 3.1.0, see https://openbabel.org
data_I
_chemical_name_common 'image0'
_cell_length_a 11.4607
_cell_length_b 18.7956
_cell_length_c 22.7213
_cell_angle_alpha 90
_cell_angle_beta 96.863
_cell_angle_gamma 90
_space_group_name_H-M_alt 'P 1'
_space_group_name_Hall 'P 1'
loop_
    _symmetry_equiv_pos_as_xyz
    x,y,z
loop_
    _atom_site_label
    _atom_site_type_symbol
    _atom_site_fract_x
    _atom_site_fract_y
    _atom_site_fract_z
    _atom_site_occupancy
    Cd1      Cd       0.64678    0.02444    0.05696    1.000
    N1       N        0.76170    0.07880    0.99111    1.000
    N2       N        0.52420    0.03960    0.61394    1.000
    N3       N        0.11660    0.56630    0.94400    1.000
    C1       C        0.75190    0.14760    0.97760    1.000
    H1       H        0.69240    0.17360    0.99190    1.000
    C2       C        0.82550    0.18200    0.94320    1.000
    H2       H        0.81520    0.23020    0.93500    1.000
    C3       C        0.91480    0.14480    0.92100    1.000
    C4       C        0.92460    0.07500    0.93510    1.000
    H3       H        0.98400    0.04790    0.92170    1.000
    C5       C        0.84790    0.04380    0.96890    1.000
    H4       H        0.85620    0.99540    0.97690    1.000
    C6       C        0.99850    0.17780    0.88470    1.000
    H5       H        0.05800    0.14870    0.87390    1.000
    C7       C        0.99790    0.24310    0.86630    1.000
    H6       H        0.93990    0.27270    0.87800    1.000
    C8       C        0.08040    0.27480    0.82870    1.000
    C9       C        0.08340    0.34700    0.82320    1.000
    H7       H        0.03430    0.37470    0.84370    1.000
    C10      C        0.15740    0.38000    0.78820    1.000
    H8       H        0.15900    0.42940    0.78600    1.000
    C11      C        0.22850    0.34050    0.75660    1.000
    H9       H        0.27700    0.36280    0.73220    1.000
    C12      C        0.22780    0.26850    0.76100    1.000
    C13      C        0.15330    0.23610    0.79740    1.000
    H10      H        0.15330    0.18680    0.80050    1.000
    C14      C        0.30410    0.22770    0.72590    1.000
    H11      H        0.35950    0.25380    0.70840    1.000
    C15      C        0.30390    0.15920    0.71630    1.000
    H12      H        0.24800    0.13290    0.73330    1.000
    C16      C        0.38150    0.11930    0.68200    1.000
    C17      C        0.36080    0.04890    0.66940    1.000
    H13      H        0.29760    0.02610    0.68340    1.000
    C18      C        0.43220    0.01180    0.63630    1.000
    H14      H        0.41550    0.96400    0.62900    1.000
    C19      C        0.54530    0.10730    0.62670    1.000
    H15      H        0.60980    0.12850    0.61260    1.000
    C20      C        0.47740    0.14840    0.65980    1.000
    H16      H        0.49660    0.19600    0.66710    1.000
    C21      C        0.12050    0.63590    0.94430    1.000
    H17      H        0.07550    0.66180    0.96810    1.000
    C22      C        0.19820    0.67330    0.90560    1.000
    H18      H        0.20210    0.72270    0.90600    1.000
    C23      C        0.26170    0.63650    0.87060    1.000
    C24      C        0.25340    0.56710    0.87290    1.000
    H19      H        0.29630    0.53940    0.84920    1.000
    C25      C        0.18360    0.53490    0.90910    1.000
    H20      H        0.18330    0.48540    0.90910    1.000
    C26      C        0.34060    0.67380    0.83100    1.000
    H21      H        0.38820    0.64410    0.81140    1.000
    C27      C        0.34980    0.73580    0.82170    1.000
    H22      H        0.30140    0.76580    0.84050    1.000
    C28      C        0.42710    0.76990    0.78460    1.000
    C29      C        0.42930    0.84300    0.78380    1.000
    H23      H        0.38180    0.86870    0.80660    1.000
    C30      C        0.20560    0.39610    0.03360    1.000
    C31      C        0.26160    0.32330    0.03220    1.000
    C32      C        0.20860    0.27230    0.99630    1.000
    H24      H        0.13810    0.28240    0.97310    1.000
    C33      C        0.25840    0.20490    0.99360    1.000
    H25      H        0.22030    0.16970    0.96980    1.000
    C34      C        0.36410    0.19110    0.02650    1.000
    C35      C        0.41670    0.24280    0.06170    1.000
    H26      H        0.48840    0.23330    0.08410    1.000
    C36      C        0.36700    0.30900    0.06530    1.000
    H27      H        0.40450    0.34370    0.08990    1.000
    C37      C        0.42090    0.11900    0.02430    1.000
    C38      C        0.82420    0.03270    0.14790    1.000
    C39      C        0.91500    0.03280    0.20090    1.000
    C40      C        0.95970    0.97380    0.22540    1.000
    H28      H        0.93540    0.93040    0.20840    1.000
    C41      C        0.95730    0.09510    0.22510    1.000
    H29      H        0.92960    0.13800    0.20860    1.000
    O1       O        0.24890    0.43860    0.07170    1.000
    O2       O        0.11610    0.40610    0.99850    1.000
    O3       O        0.35850    0.06903    0.00317    1.000
    O4       O        0.52540    0.11564    0.04569    1.000
    O5       O        0.80760    0.97620    0.11937    1.000
    O6       O        0.76560    0.08620    0.13425    1.000
    Cd2      Cd       0.35322    0.02444    0.44304    1.000
    N4       N        0.23830    0.07880    0.50889    1.000
    N5       N        0.47580    0.03960    0.88606    1.000
    N6       N        0.88340    0.56630    0.55600    1.000
    C42      C        0.24810    0.14760    0.52240    1.000
    H30      H        0.30760    0.17360    0.50810    1.000
    C43      C        0.17450    0.18200    0.55680    1.000
    H31      H        0.18480    0.23020    0.56500    1.000
    C44      C        0.08520    0.14480    0.57900    1.000
    C45      C        0.07540    0.07500    0.56490    1.000
    H32      H        0.01600    0.04790    0.57830    1.000
    C46      C        0.15210    0.04380    0.53110    1.000
    H33      H        0.14380    0.99540    0.52310    1.000
    C47      C        0.00150    0.17780    0.61530    1.000
    H34      H        0.94200    0.14870    0.62610    1.000
    C48      C        0.00210    0.24310    0.63370    1.000
    H35      H        0.06010    0.27270    0.62200    1.000
    C49      C        0.91960    0.27480    0.67130    1.000
    C50      C        0.91660    0.34700    0.67680    1.000
    H36      H        0.96570    0.37470    0.65630    1.000
    C51      C        0.84260    0.38000    0.71180    1.000
    H37      H        0.84100    0.42940    0.71400    1.000
    C52      C        0.77150    0.34050    0.74340    1.000
    H38      H        0.72300    0.36280    0.76780    1.000
    C53      C        0.77220    0.26850    0.73900    1.000
    C54      C        0.84670    0.23610    0.70260    1.000
    H39      H        0.84670    0.18680    0.69950    1.000
    C55      C        0.69590    0.22770    0.77410    1.000
    H40      H        0.64050    0.25380    0.79160    1.000
    C56      C        0.69610    0.15920    0.78370    1.000
    H41      H        0.75200    0.13290    0.76670    1.000
    C57      C        0.61850    0.11930    0.81800    1.000
    C58      C        0.63920    0.04890    0.83060    1.000
    H42      H        0.70240    0.02610    0.81660    1.000
    C59      C        0.56780    0.01180    0.86370    1.000
    H43      H        0.58450    0.96400    0.87100    1.000
    C60      C        0.45470    0.10730    0.87330    1.000
    H44      H        0.39020    0.12850    0.88740    1.000
    C61      C        0.52260    0.14840    0.84020    1.000
    H45      H        0.50340    0.19600    0.83290    1.000
    C62      C        0.87950    0.63590    0.55570    1.000
    H46      H        0.92450    0.66180    0.53190    1.000
    C63      C        0.80180    0.67330    0.59440    1.000
    H47      H        0.79790    0.72270    0.59400    1.000
    C64      C        0.73830    0.63650    0.62940    1.000
    C65      C        0.74660    0.56710    0.62710    1.000
    H48      H        0.70370    0.53940    0.65080    1.000
    C66      C        0.81640    0.53490    0.59090    1.000
    H49      H        0.81670    0.48540    0.59090    1.000
    C67      C        0.65940    0.67380    0.66900    1.000
    H50      H        0.61180    0.64410    0.68860    1.000
    C68      C        0.65020    0.73580    0.67830    1.000
    H51      H        0.69860    0.76580    0.65950    1.000
    C69      C        0.57290    0.76990    0.71540    1.000
    C70      C        0.57070    0.84300    0.71620    1.000
    H52      H        0.61820    0.86870    0.69340    1.000
    C71      C        0.79440    0.39610    0.46640    1.000
    C72      C        0.73840    0.32330    0.46780    1.000
    C73      C        0.79140    0.27230    0.50370    1.000
    H53      H        0.86190    0.28240    0.52690    1.000
    C74      C        0.74160    0.20490    0.50640    1.000
    H54      H        0.77970    0.16970    0.53020    1.000
    C75      C        0.63590    0.19110    0.47350    1.000
    C76      C        0.58330    0.24280    0.43830    1.000
    H55      H        0.51160    0.23330    0.41590    1.000
    C77      C        0.63300    0.30900    0.43470    1.000
    H56      H        0.59550    0.34370    0.41010    1.000
    C78      C        0.57910    0.11900    0.47570    1.000
    C79      C        0.17580    0.03270    0.35210    1.000
    C80      C        0.08500    0.03280    0.29910    1.000
    C81      C        0.04030    0.97380    0.27460    1.000
    H57      H        0.06460    0.93040    0.29160    1.000
    C82      C        0.04270    0.09510    0.27490    1.000
    H58      H        0.07040    0.13800    0.29140    1.000
    O7       O        0.75110    0.43860    0.42830    1.000
    O8       O        0.88390    0.40610    0.50150    1.000
    O9       O        0.64150    0.06903    0.49683    1.000
    O10      O        0.47460    0.11564    0.45431    1.000
    O11      O        0.19240    0.97620    0.38063    1.000
    O12      O        0.23440    0.08620    0.36575    1.000
    Cd3      Cd       0.35322    0.97556    0.94304    1.000
    N7       N        0.23830    0.92120    0.00889    1.000
    N8       N        0.47580    0.96040    0.38606    1.000
    N9       N        0.88340    0.43370    0.05600    1.000
    C83      C        0.24810    0.85240    0.02240    1.000
    H59      H        0.30760    0.82640    0.00810    1.000
    C84      C        0.17450    0.81800    0.05680    1.000
    H60      H        0.18480    0.76980    0.06500    1.000
    C85      C        0.08520    0.85520    0.07900    1.000
    C86      C        0.07540    0.92500    0.06490    1.000
    H61      H        0.01600    0.95210    0.07830    1.000
    C87      C        0.15210    0.95620    0.03110    1.000
    H62      H        0.14380    0.00460    0.02310    1.000
    C88      C        0.00150    0.82220    0.11530    1.000
    H63      H        0.94200    0.85130    0.12610    1.000
    C89      C        0.00210    0.75690    0.13370    1.000
    H64      H        0.06010    0.72730    0.12200    1.000
    C90      C        0.91960    0.72520    0.17130    1.000
    C91      C        0.91660    0.65300    0.17680    1.000
    H65      H        0.96570    0.62530    0.15630    1.000
    C92      C        0.84260    0.62000    0.21180    1.000
    H66      H        0.84100    0.57060    0.21400    1.000
    C93      C        0.77150    0.65950    0.24340    1.000
    H67      H        0.72300    0.63720    0.26780    1.000
    C94      C        0.77220    0.73150    0.23900    1.000
    C95      C        0.84670    0.76390    0.20260    1.000
    H68      H        0.84670    0.81320    0.19950    1.000
    C96      C        0.69590    0.77230    0.27410    1.000
    H69      H        0.64050    0.74620    0.29160    1.000
    C97      C        0.69610    0.84080    0.28370    1.000
    H70      H        0.75200    0.86710    0.26670    1.000
    C98      C        0.61850    0.88070    0.31800    1.000
    C99      C        0.63920    0.95110    0.33060    1.000
    H71      H        0.70240    0.97390    0.31660    1.000
    C100     C        0.56780    0.98820    0.36370    1.000
    H72      H        0.58450    0.03600    0.37100    1.000
    C101     C        0.45470    0.89270    0.37330    1.000
    H73      H        0.39020    0.87150    0.38740    1.000
    C102     C        0.52260    0.85160    0.34020    1.000
    H74      H        0.50340    0.80400    0.33290    1.000
    C103     C        0.87950    0.36410    0.05570    1.000
    H75      H        0.92450    0.33820    0.03190    1.000
    C104     C        0.80180    0.32670    0.09440    1.000
    H76      H        0.79790    0.27730    0.09400    1.000
    C105     C        0.73830    0.36350    0.12940    1.000
    C106     C        0.74660    0.43290    0.12710    1.000
    H77      H        0.70370    0.46060    0.15080    1.000
    C107     C        0.81640    0.46510    0.09090    1.000
    H78      H        0.81670    0.51460    0.09090    1.000
    C108     C        0.65940    0.32620    0.16900    1.000
    H79      H        0.61180    0.35590    0.18860    1.000
    C109     C        0.65020    0.26420    0.17830    1.000
    H80      H        0.69860    0.23420    0.15950    1.000
    C110     C        0.57290    0.23010    0.21540    1.000
    C111     C        0.57070    0.15700    0.21620    1.000
    H81      H        0.61820    0.13130    0.19340    1.000
    C112     C        0.79440    0.60390    0.96640    1.000
    C113     C        0.73840    0.67670    0.96780    1.000
    C114     C        0.79140    0.72770    0.00370    1.000
    H82      H        0.86190    0.71760    0.02690    1.000
    C115     C        0.74160    0.79510    0.00640    1.000
    H83      H        0.77970    0.83030    0.03020    1.000
    C116     C        0.63590    0.80890    0.97350    1.000
    C117     C        0.58330    0.75720    0.93830    1.000
    H84      H        0.51160    0.76670    0.91590    1.000
    C118     C        0.63300    0.69100    0.93470    1.000
    H85      H        0.59550    0.65630    0.91010    1.000
    C119     C        0.57910    0.88100    0.97570    1.000
    C120     C        0.17580    0.96730    0.85210    1.000
    C121     C        0.08500    0.96720    0.79910    1.000
    C122     C        0.04030    0.02620    0.77460    1.000
    H86      H        0.06460    0.06960    0.79160    1.000
    C123     C        0.04270    0.90490    0.77490    1.000
    H87      H        0.07040    0.86200    0.79140    1.000
    O13      O        0.75110    0.56140    0.92830    1.000
    O14      O        0.88390    0.59390    0.00150    1.000
    O15      O        0.64150    0.93097    0.99683    1.000
    O16      O        0.47460    0.88436    0.95431    1.000
    O17      O        0.19240    0.02380    0.88063    1.000
    O18      O        0.23440    0.91380    0.86575    1.000
    Cd4      Cd       0.64678    0.97556    0.55696    1.000
    N10      N        0.76170    0.92120    0.49111    1.000
    N11      N        0.52420    0.96040    0.11394    1.000
    N12      N        0.11660    0.43370    0.44400    1.000
    C124     C        0.75190    0.85240    0.47760    1.000
    H88      H        0.69240    0.82640    0.49190    1.000
    C125     C        0.82550    0.81800    0.44320    1.000
    H89      H        0.81520    0.76980    0.43500    1.000
    C126     C        0.91480    0.85520    0.42100    1.000
    C127     C        0.92460    0.92500    0.43510    1.000
    H90      H        0.98400    0.95210    0.42170    1.000
    C128     C        0.84790    0.95620    0.46890    1.000
    H91      H        0.85620    0.00460    0.47690    1.000
    C129     C        0.99850    0.82220    0.38470    1.000
    H92      H        0.05800    0.85130    0.37390    1.000
    C130     C        0.99790    0.75690    0.36630    1.000
    H93      H        0.93990    0.72730    0.37800    1.000
    C131     C        0.08040    0.72520    0.32870    1.000
    C132     C        0.08340    0.65300    0.32320    1.000
    H94      H        0.03430    0.62530    0.34370    1.000
    C133     C        0.15740    0.62000    0.28820    1.000
    H95      H        0.15900    0.57060    0.28600    1.000
    C134     C        0.22850    0.65950    0.25660    1.000
    H96      H        0.27700    0.63720    0.23220    1.000
    C135     C        0.22780    0.73150    0.26100    1.000
    C136     C        0.15330    0.76390    0.29740    1.000
    H97      H        0.15330    0.81320    0.30050    1.000
    C137     C        0.30410    0.77230    0.22590    1.000
    H98      H        0.35950    0.74620    0.20840    1.000
    C138     C        0.30390    0.84080    0.21630    1.000
    H99      H        0.24800    0.86710    0.23330    1.000
    C139     C        0.38150    0.88070    0.18200    1.000
    C140     C        0.36080    0.95110    0.16940    1.000
    H100     H        0.29760    0.97390    0.18340    1.000
    C141     C        0.43220    0.98820    0.13630    1.000
    H101     H        0.41550    0.03600    0.12900    1.000
    C142     C        0.54530    0.89270    0.12670    1.000
    H102     H        0.60980    0.87150    0.11260    1.000
    C143     C        0.47740    0.85160    0.15980    1.000
    H103     H        0.49660    0.80400    0.16710    1.000
    C144     C        0.12050    0.36410    0.44430    1.000
    H104     H        0.07550    0.33820    0.46810    1.000
    C145     C        0.19820    0.32670    0.40560    1.000
    H105     H        0.20210    0.27730    0.40600    1.000
    C146     C        0.26170    0.36350    0.37060    1.000
    C147     C        0.25340    0.43290    0.37290    1.000
    H106     H        0.29630    0.46060    0.34920    1.000
    C148     C        0.18360    0.46510    0.40910    1.000
    H107     H        0.18330    0.51460    0.40910    1.000
    C149     C        0.34060    0.32620    0.33100    1.000
    H108     H        0.38820    0.35590    0.31140    1.000
    C150     C        0.34980    0.26420    0.32170    1.000
    H109     H        0.30140    0.23420    0.34050    1.000
    C151     C        0.42710    0.23010    0.28460    1.000
    C152     C        0.42930    0.15700    0.28380    1.000
    H110     H        0.38180    0.13130    0.30660    1.000
    C153     C        0.20560    0.60390    0.53360    1.000
    C154     C        0.26160    0.67670    0.53220    1.000
    C155     C        0.20860    0.72770    0.49630    1.000
    H111     H        0.13810    0.71760    0.47310    1.000
    C156     C        0.25840    0.79510    0.49360    1.000
    H112     H        0.22030    0.83030    0.46980    1.000
    C157     C        0.36410    0.80890    0.52650    1.000
    C158     C        0.41670    0.75720    0.56170    1.000
    H113     H        0.48840    0.76670    0.58410    1.000
    C159     C        0.36700    0.69100    0.56530    1.000
    H114     H        0.40450    0.65630    0.58990    1.000
    C160     C        0.42090    0.88100    0.52430    1.000
    C161     C        0.82420    0.96730    0.64790    1.000
    C162     C        0.91500    0.96720    0.70090    1.000
    C163     C        0.95970    0.02620    0.72540    1.000
    H115     H        0.93540    0.06960    0.70840    1.000
    C164     C        0.95730    0.90490    0.72510    1.000
    H116     H        0.92960    0.86200    0.70860    1.000
    O19      O        0.24890    0.56140    0.57170    1.000
    O20      O        0.11610    0.59390    0.49850    1.000
    O21      O        0.35850    0.93097    0.50317    1.000
    O22      O        0.52540    0.88436    0.54569    1.000
    O23      O        0.80760    0.02380    0.61937    1.000
    O24      O        0.76560    0.91380    0.63425    1.000
    Cd5      Cd       0.00000    0.50000    0.00000    1.000
    Cd6      Cd       0.00000    0.50000    0.50000    1.000
    C165     C        0.50000    0.73340    0.75000    1.000
    H117     H        0.50000    0.68390    0.75000    1.000
    C166     C        0.50000    0.87760    0.75000    1.000
    H118     H        0.50000    0.92700    0.75000    1.000
    C167     C        0.50000    0.26660    0.25000    1.000
    H119     H        0.50000    0.31610    0.25000    1.000
    C168     C        0.50000    0.12240    0.25000    1.000
    H120     H        0.50000    0.07300    0.25000    1.000
