# CIF file generated by openbabel 3.1.0, see https://openbabel.org
data_I
_chemical_name_common 'image0'
_cell_length_a 8.391
_cell_length_b 11.831
_cell_length_c 8.842
_cell_angle_alpha 90
_cell_angle_beta 90
_cell_angle_gamma 90
_space_group_name_H-M_alt 'P 1'
_space_group_name_Hall 'P 1'
loop_
    _symmetry_equiv_pos_as_xyz
    x,y,z
loop_
    _atom_site_label
    _atom_site_type_symbol
    _atom_site_fract_x
    _atom_site_fract_y
    _atom_site_fract_z
    _atom_site_occupancy
    C1       C        0.51810    0.27700    0.01900    1.000
    H1       H        0.58080    0.22370    0.06830    1.000
    O1       O        0.75160    0.09430    0.86020    1.000
    O2       O        0.56080    0.30480    0.88940    1.000
    O3       O        0.40240    0.31240    0.08830    1.000
    C2       C        0.98190    0.72300    0.01900    1.000
    H2       H        0.91920    0.77630    0.06830    1.000
    O4       O        0.74840    0.90570    0.86020    1.000
    O5       O        0.93920    0.69520    0.88940    1.000
    O6       O        0.09760    0.68760    0.08830    1.000
    C3       C        0.98190    0.77700    0.48100    1.000
    H3       H        0.91920    0.72370    0.43170    1.000
    O7       O        0.74840    0.59430    0.63980    1.000
    O8       O        0.93920    0.80480    0.61060    1.000
    O9       O        0.09760    0.81240    0.41170    1.000
    C4       C        0.51810    0.22300    0.48100    1.000
    H4       H        0.58080    0.27630    0.43170    1.000
    O10      O        0.75160    0.40570    0.63980    1.000
    O11      O        0.56080    0.19520    0.61060    1.000
    O12      O        0.40240    0.18760    0.41170    1.000
    C5       C        0.48190    0.72300    0.98100    1.000
    H5       H        0.41920    0.77630    0.93170    1.000
    O13      O        0.24840    0.90570    0.13980    1.000
    O14      O        0.43920    0.69520    0.11060    1.000
    O15      O        0.59760    0.68760    0.91170    1.000
    C6       C        0.01810    0.27700    0.98100    1.000
    H6       H        0.08080    0.22370    0.93170    1.000
    O16      O        0.25160    0.09430    0.13980    1.000
    O17      O        0.06080    0.30480    0.11060    1.000
    O18      O        0.90240    0.31240    0.91170    1.000
    C7       C        0.01810    0.22300    0.51900    1.000
    H7       H        0.08080    0.27630    0.56830    1.000
    O19      O        0.25160    0.40570    0.36020    1.000
    O20      O        0.06080    0.19520    0.38940    1.000
    O21      O        0.90240    0.18760    0.58830    1.000
    C8       C        0.48190    0.77700    0.51900    1.000
    H8       H        0.41920    0.72370    0.56830    1.000
    O22      O        0.24840    0.59430    0.36020    1.000
    O23      O        0.43920    0.80480    0.38940    1.000
    O24      O        0.59760    0.81240    0.58830    1.000
    C9       C        0.75000    0.00000    0.80000    1.000
    H9       H        0.75000    0.00000    0.69480    1.000
    C10      C        0.75000    0.50000    0.70000    1.000
    H10      H        0.75000    0.50000    0.80520    1.000
    C11      C        0.25000    0.00000    0.20000    1.000
    H11      H        0.25000    0.00000    0.30520    1.000
    C12      C        0.25000    0.50000    0.30000    1.000
    H12      H        0.25000    0.50000    0.19480    1.000
    Mg1      Mg       0.74743    0.25000    0.75000    1.000
    Mg2      Mg       0.75257    0.75000    0.75000    1.000
    Mg3      Mg       0.25257    0.75000    0.25000    1.000
    Mg4      Mg       0.24743    0.25000    0.25000    1.000
