# CIF file generated by openbabel 3.1.0, see https://openbabel.org
data_I
_chemical_name_common 'image0'
_cell_length_a 14.754
_cell_length_b 23.596
_cell_length_c 9.273
_cell_angle_alpha 90
_cell_angle_beta 90
_cell_angle_gamma 90
_space_group_name_H-M_alt 'P 1'
_space_group_name_Hall 'P 1'
loop_
    _symmetry_equiv_pos_as_xyz
    x,y,z
loop_
    _atom_site_label
    _atom_site_type_symbol
    _atom_site_fract_x
    _atom_site_fract_y
    _atom_site_fract_z
    _atom_site_occupancy
    Fe1      Fe       0.17543    0.80449    0.66387    1.000
    Cl1      Cl       0.06554    0.74528    0.56670    1.000
    O1       O        0.33680    0.87569    0.35850    1.000
    O2       O        0.36680    0.92808    0.61010    1.000
    O3       O        0.98240    0.93045    0.71570    1.000
    O4       O        0.26830    0.86978    0.71750    1.000
    C1       C        0.04320    0.89090    0.71750    1.000
    C2       C        0.31040    0.88760    0.60940    1.000
    Fe2      Fe       0.17543    0.30449    0.16387    1.000
    Cl2      Cl       0.06554    0.24528    0.06670    1.000
    O5       O        0.33680    0.37569    0.85850    1.000
    O6       O        0.36680    0.42808    0.11010    1.000
    O7       O        0.98240    0.43045    0.21570    1.000
    O8       O        0.26830    0.36978    0.21750    1.000
    C3       C        0.04320    0.39090    0.21750    1.000
    C4       C        0.31040    0.38760    0.10940    1.000
    Fe3      Fe       0.67543    0.80449    0.16387    1.000
    Cl3      Cl       0.56554    0.74528    0.06670    1.000
    O9       O        0.83680    0.87569    0.85850    1.000
    O10      O        0.86680    0.92808    0.11010    1.000
    O11      O        0.48240    0.93045    0.21570    1.000
    O12      O        0.76830    0.86978    0.21750    1.000
    C5       C        0.54320    0.89090    0.21750    1.000
    C6       C        0.81040    0.88760    0.10940    1.000
    Fe4      Fe       0.67543    0.30449    0.66387    1.000
    Cl4      Cl       0.56554    0.24528    0.56670    1.000
    O13      O        0.83680    0.37569    0.35850    1.000
    O14      O        0.86680    0.42808    0.61010    1.000
    O15      O        0.48240    0.43045    0.71570    1.000
    O16      O        0.76830    0.36978    0.71750    1.000
    C7       C        0.54320    0.39090    0.71750    1.000
    C8       C        0.81040    0.38760    0.60940    1.000
    Fe5      Fe       0.82457    0.19551    0.66387    1.000
    Cl5      Cl       0.93446    0.25472    0.56670    1.000
    O17      O        0.66320    0.12431    0.35850    1.000
    O18      O        0.63320    0.07192    0.61010    1.000
    O19      O        0.01760    0.06955    0.71570    1.000
    O20      O        0.73170    0.13022    0.71750    1.000
    C9       C        0.95680    0.10910    0.71750    1.000
    C10      C        0.68960    0.11240    0.60940    1.000
    Fe6      Fe       0.82457    0.69551    0.16387    1.000
    Cl6      Cl       0.93446    0.75472    0.06670    1.000
    O21      O        0.66320    0.62431    0.85850    1.000
    O22      O        0.63320    0.57192    0.11010    1.000
    O23      O        0.01760    0.56955    0.21570    1.000
    O24      O        0.73170    0.63022    0.21750    1.000
    C11      C        0.95680    0.60910    0.21750    1.000
    C12      C        0.68960    0.61240    0.10940    1.000
    Fe7      Fe       0.32457    0.19551    0.16387    1.000
    Cl7      Cl       0.43446    0.25472    0.06670    1.000
    O25      O        0.16320    0.12431    0.85850    1.000
    O26      O        0.13320    0.07192    0.11010    1.000
    O27      O        0.51760    0.06955    0.21570    1.000
    O28      O        0.23170    0.13022    0.21750    1.000
    C13      C        0.45680    0.10910    0.21750    1.000
    C14      C        0.18960    0.11240    0.10940    1.000
    Fe8      Fe       0.32457    0.69551    0.66387    1.000
    Cl8      Cl       0.43446    0.75472    0.56670    1.000
    O29      O        0.16320    0.62431    0.35850    1.000
    O30      O        0.13320    0.57192    0.61010    1.000
    O31      O        0.51760    0.56955    0.71570    1.000
    O32      O        0.23170    0.63022    0.71750    1.000
    C15      C        0.45680    0.60910    0.71750    1.000
    C16      C        0.18960    0.61240    0.60940    1.000
    Fe9      Fe       0.42543    0.44551    0.91387    1.000
    Cl9      Cl       0.31554    0.50472    0.81670    1.000
    O33      O        0.58680    0.37431    0.60850    1.000
    O34      O        0.61680    0.32192    0.86010    1.000
    O35      O        0.23240    0.31955    0.96570    1.000
    O36      O        0.51830    0.38022    0.96750    1.000
    C17      C        0.29320    0.35910    0.96750    1.000
    C18      C        0.56040    0.36240    0.85940    1.000
    Fe10     Fe       0.42543    0.94551    0.41387    1.000
    Cl10     Cl       0.31554    0.00472    0.31670    1.000
    O37      O        0.58680    0.87431    0.10850    1.000
    O38      O        0.61680    0.82192    0.36010    1.000
    O39      O        0.23240    0.81955    0.46570    1.000
    O40      O        0.51830    0.88022    0.46750    1.000
    C19      C        0.29320    0.85910    0.46750    1.000
    C20      C        0.56040    0.86240    0.35940    1.000
    Fe11     Fe       0.92543    0.44551    0.41387    1.000
    Cl11     Cl       0.81554    0.50472    0.31670    1.000
    O41      O        0.08680    0.37431    0.10850    1.000
    O42      O        0.11680    0.32192    0.36010    1.000
    O43      O        0.73240    0.31955    0.46570    1.000
    O44      O        0.01830    0.38022    0.46750    1.000
    C21      C        0.79320    0.35910    0.46750    1.000
    C22      C        0.06040    0.36240    0.35940    1.000
    Fe12     Fe       0.92543    0.94551    0.91387    1.000
    Cl12     Cl       0.81554    0.00472    0.81670    1.000
    O45      O        0.08680    0.87431    0.60850    1.000
    O46      O        0.11680    0.82192    0.86010    1.000
    O47      O        0.73240    0.81955    0.96570    1.000
    O48      O        0.01830    0.88022    0.96750    1.000
    C23      C        0.79320    0.85910    0.96750    1.000
    C24      C        0.06040    0.86240    0.85940    1.000
    Fe13     Fe       0.07457    0.05449    0.91387    1.000
    Cl13     Cl       0.18446    0.99528    0.81670    1.000
    O49      O        0.91320    0.12569    0.60850    1.000
    O50      O        0.88320    0.17808    0.86010    1.000
    O51      O        0.26760    0.18045    0.96570    1.000
    O52      O        0.98170    0.11978    0.96750    1.000
    C25      C        0.20680    0.14090    0.96750    1.000
    C26      C        0.93960    0.13760    0.85940    1.000
    Fe14     Fe       0.07457    0.55449    0.41387    1.000
    Cl14     Cl       0.18446    0.49528    0.31670    1.000
    O53      O        0.91320    0.62569    0.10850    1.000
    O54      O        0.88320    0.67808    0.36010    1.000
    O55      O        0.26760    0.68045    0.46570    1.000
    O56      O        0.98170    0.61978    0.46750    1.000
    C27      C        0.20680    0.64090    0.46750    1.000
    C28      C        0.93960    0.63760    0.35940    1.000
    Fe15     Fe       0.57457    0.05449    0.41387    1.000
    Cl15     Cl       0.68446    0.99528    0.31670    1.000
    O57      O        0.41320    0.12569    0.10850    1.000
    O58      O        0.38320    0.17808    0.36010    1.000
    O59      O        0.76760    0.18045    0.46570    1.000
    O60      O        0.48170    0.11978    0.46750    1.000
    C29      C        0.70680    0.14090    0.46750    1.000
    C30      C        0.43960    0.13760    0.35940    1.000
    Fe16     Fe       0.57457    0.55449    0.91387    1.000
    Cl16     Cl       0.68446    0.49528    0.81670    1.000
    O61      O        0.41320    0.62569    0.60850    1.000
    O62      O        0.38320    0.67808    0.86010    1.000
    O63      O        0.76760    0.68045    0.96570    1.000
    O64      O        0.48170    0.61978    0.96750    1.000
    C31      C        0.70680    0.64090    0.96750    1.000
    C32      C        0.43960    0.63760    0.85940    1.000
    O65      O        0.25000    0.75000    0.73760    1.000
    O66      O        0.25000    0.25000    0.23760    1.000
    O67      O        0.75000    0.25000    0.73760    1.000
    O68      O        0.75000    0.75000    0.23760    1.000
    O69      O        0.50000    0.50000    0.98760    1.000
    O70      O        0.50000    0.00000    0.48760    1.000
    O71      O        0.00000    0.00000    0.98760    1.000
    O72      O        0.00000    0.50000    0.48760    1.000
