# CIF file generated by openbabel 3.1.0, see https://openbabel.org
data_I
_chemical_name_common 'image0'
_cell_length_a 30.5536
_cell_length_b 15.643
_cell_length_c 21.9701
_cell_angle_alpha 90
_cell_angle_beta 133.091
_cell_angle_gamma 90
_space_group_name_H-M_alt 'P 1'
_space_group_name_Hall 'P 1'
loop_
    _symmetry_equiv_pos_as_xyz
    x,y,z
loop_
    _atom_site_label
    _atom_site_type_symbol
    _atom_site_fract_x
    _atom_site_fract_y
    _atom_site_fract_z
    _atom_site_occupancy
    Nd1      Nd       0.33129    0.87170    0.48589    1.000
    Nd2      Nd       0.61055    0.86345    0.67363    1.000
    O1       O        0.25281    0.76910    0.37230    1.000
    O2       O        0.22330    0.65210    0.29520    1.000
    O3       O        0.44050    0.85700    0.56960    1.000
    O4       O        0.52050    0.78480    0.61390    1.000
    O5       O        0.63390    0.97210    0.61740    1.000
    O6       O        0.67330    0.09590    0.62560    1.000
    O7       O        0.62230    0.88280    0.79510    1.000
    O8       O        0.65730    0.95270    0.90910    1.000
    N1       N        0.36650    0.73450    0.46420    1.000
    N2       N        0.66170    0.00130    0.75790    1.000
    C1       C        0.32760    0.67640    0.40690    1.000
    C2       C        0.34590    0.60110    0.39570    1.000
    H1       H        0.31730    0.56090    0.35410    1.000
    C3       C        0.40650    0.58650    0.44690    1.000
    H2       H        0.42040    0.53510    0.44190    1.000
    C4       C        0.44660    0.64700    0.50490    1.000
    H3       H        0.48850    0.63850    0.53970    1.000
    C5       C        0.42530    0.72040    0.51220    1.000
    C6       C        0.26230    0.70110    0.35340    1.000
    C7       C        0.46520    0.79210    0.57030    1.000
    C8       C        0.68470    0.05460    0.73850    1.000
    C9       C        0.72600    0.11790    0.79300    1.000
    H4       H        0.74450    0.15220    0.78020    1.000
    C10      C        0.73900    0.12860    0.86640    1.000
    H5       H        0.76640    0.17170    0.90480    1.000
    C11      C        0.71220    0.07650    0.88380    1.000
    H6       H        0.71960    0.08480    0.93300    1.000
    C12      C        0.67440    0.01230    0.82830    1.000
    C13      C        0.66270    0.04050    0.65390    1.000
    C14      C        0.64950    0.94570    0.84650    1.000
    Nd3      Nd       0.83129    0.37170    0.48589    1.000
    Nd4      Nd       0.11055    0.36345    0.67363    1.000
    O9       O        0.75281    0.26910    0.37230    1.000
    O10      O        0.72330    0.15210    0.29520    1.000
    O11      O        0.94050    0.35700    0.56960    1.000
    O12      O        0.02050    0.28480    0.61390    1.000
    O13      O        0.13390    0.47210    0.61740    1.000
    O14      O        0.17330    0.59590    0.62560    1.000
    O15      O        0.12230    0.38280    0.79510    1.000
    O16      O        0.15730    0.45270    0.90910    1.000
    N3       N        0.86650    0.23450    0.46420    1.000
    N4       N        0.16170    0.50130    0.75790    1.000
    C15      C        0.82760    0.17640    0.40690    1.000
    C16      C        0.84590    0.10110    0.39570    1.000
    H7       H        0.81730    0.06090    0.35410    1.000
    C17      C        0.90650    0.08650    0.44690    1.000
    H8       H        0.92040    0.03510    0.44190    1.000
    C18      C        0.94660    0.14700    0.50490    1.000
    H9       H        0.98850    0.13850    0.53970    1.000
    C19      C        0.92530    0.22040    0.51220    1.000
    C20      C        0.76230    0.20110    0.35340    1.000
    C21      C        0.96520    0.29210    0.57030    1.000
    C22      C        0.18470    0.55460    0.73850    1.000
    C23      C        0.22600    0.61790    0.79300    1.000
    H10      H        0.24450    0.65220    0.78020    1.000
    C24      C        0.23900    0.62860    0.86640    1.000
    H11      H        0.26640    0.67170    0.90480    1.000
    C25      C        0.21220    0.57650    0.88380    1.000
    H12      H        0.21960    0.58480    0.93300    1.000
    C26      C        0.17440    0.51230    0.82830    1.000
    C27      C        0.16270    0.54050    0.65390    1.000
    C28      C        0.14950    0.44570    0.84650    1.000
    Nd5      Nd       0.66871    0.87170    0.01411    1.000
    Nd6      Nd       0.38946    0.86345    0.82637    1.000
    O17      O        0.74719    0.76910    0.12770    1.000
    O18      O        0.77670    0.65210    0.20480    1.000
    O19      O        0.55950    0.85700    0.93040    1.000
    O20      O        0.47950    0.78480    0.88610    1.000
    O21      O        0.36610    0.97210    0.88260    1.000
    O22      O        0.32670    0.09590    0.87440    1.000
    O23      O        0.37770    0.88280    0.70490    1.000
    O24      O        0.34270    0.95270    0.59090    1.000
    N5       N        0.63350    0.73450    0.03580    1.000
    N6       N        0.33830    0.00130    0.74210    1.000
    C29      C        0.67240    0.67640    0.09310    1.000
    C30      C        0.65410    0.60110    0.10430    1.000
    H13      H        0.68270    0.56090    0.14590    1.000
    C31      C        0.59350    0.58650    0.05310    1.000
    H14      H        0.57960    0.53510    0.05810    1.000
    C32      C        0.55340    0.64700    0.99510    1.000
    H15      H        0.51150    0.63850    0.96030    1.000
    C33      C        0.57470    0.72040    0.98780    1.000
    C34      C        0.73770    0.70110    0.14660    1.000
    C35      C        0.53480    0.79210    0.92970    1.000
    C36      C        0.31530    0.05460    0.76150    1.000
    C37      C        0.27400    0.11790    0.70700    1.000
    H16      H        0.25550    0.15220    0.71980    1.000
    C38      C        0.26100    0.12860    0.63360    1.000
    H17      H        0.23360    0.17170    0.59520    1.000
    C39      C        0.28780    0.07650    0.61620    1.000
    H18      H        0.28040    0.08480    0.56700    1.000
    C40      C        0.32560    0.01230    0.67170    1.000
    C41      C        0.33730    0.04050    0.84610    1.000
    C42      C        0.35050    0.94570    0.65350    1.000
    Nd7      Nd       0.16871    0.37170    0.01411    1.000
    Nd8      Nd       0.88946    0.36345    0.82637    1.000
    O25      O        0.24719    0.26910    0.12770    1.000
    O26      O        0.27670    0.15210    0.20480    1.000
    O27      O        0.05950    0.35700    0.93040    1.000
    O28      O        0.97950    0.28480    0.88610    1.000
    O29      O        0.86610    0.47210    0.88260    1.000
    O30      O        0.82670    0.59590    0.87440    1.000
    O31      O        0.87770    0.38280    0.70490    1.000
    O32      O        0.84270    0.45270    0.59090    1.000
    N7       N        0.13350    0.23450    0.03580    1.000
    N8       N        0.83830    0.50130    0.74210    1.000
    C43      C        0.17240    0.17640    0.09310    1.000
    C44      C        0.15410    0.10110    0.10430    1.000
    H19      H        0.18270    0.06090    0.14590    1.000
    C45      C        0.09350    0.08650    0.05310    1.000
    H20      H        0.07960    0.03510    0.05810    1.000
    C46      C        0.05340    0.14700    0.99510    1.000
    H21      H        0.01150    0.13850    0.96030    1.000
    C47      C        0.07470    0.22040    0.98780    1.000
    C48      C        0.23770    0.20110    0.14660    1.000
    C49      C        0.03480    0.29210    0.92970    1.000
    C50      C        0.81530    0.55460    0.76150    1.000
    C51      C        0.77400    0.61790    0.70700    1.000
    H22      H        0.75550    0.65220    0.71980    1.000
    C52      C        0.76100    0.62860    0.63360    1.000
    H23      H        0.73360    0.67170    0.59520    1.000
    C53      C        0.78780    0.57650    0.61620    1.000
    H24      H        0.78040    0.58480    0.56700    1.000
    C54      C        0.82560    0.51230    0.67170    1.000
    C55      C        0.83730    0.54050    0.84610    1.000
    C56      C        0.85050    0.44570    0.65350    1.000
    Nd9      Nd       0.66871    0.12830    0.51411    1.000
    Nd10     Nd       0.38946    0.13655    0.32637    1.000
    O33      O        0.74719    0.23090    0.62770    1.000
    O34      O        0.77670    0.34790    0.70480    1.000
    O35      O        0.55950    0.14300    0.43040    1.000
    O36      O        0.47950    0.21520    0.38610    1.000
    O37      O        0.36610    0.02790    0.38260    1.000
    O38      O        0.32670    0.90410    0.37440    1.000
    O39      O        0.37770    0.11720    0.20490    1.000
    O40      O        0.34270    0.04730    0.09090    1.000
    N9       N        0.63350    0.26550    0.53580    1.000
    N10      N        0.33830    0.99870    0.24210    1.000
    C57      C        0.67240    0.32360    0.59310    1.000
    C58      C        0.65410    0.39890    0.60430    1.000
    H25      H        0.68270    0.43910    0.64590    1.000
    C59      C        0.59350    0.41350    0.55310    1.000
    H26      H        0.57960    0.46490    0.55810    1.000
    C60      C        0.55340    0.35300    0.49510    1.000
    H27      H        0.51150    0.36150    0.46030    1.000
    C61      C        0.57470    0.27960    0.48780    1.000
    C62      C        0.73770    0.29890    0.64660    1.000
    C63      C        0.53480    0.20790    0.42970    1.000
    C64      C        0.31530    0.94540    0.26150    1.000
    C65      C        0.27400    0.88210    0.20700    1.000
    H28      H        0.25550    0.84780    0.21980    1.000
    C66      C        0.26100    0.87140    0.13360    1.000
    H29      H        0.23360    0.82830    0.09520    1.000
    C67      C        0.28780    0.92350    0.11620    1.000
    H30      H        0.28040    0.91520    0.06700    1.000
    C68      C        0.32560    0.98770    0.17170    1.000
    C69      C        0.33730    0.95950    0.34610    1.000
    C70      C        0.35050    0.05430    0.15350    1.000
    Nd11     Nd       0.16871    0.62830    0.51411    1.000
    Nd12     Nd       0.88946    0.63655    0.32637    1.000
    O41      O        0.24719    0.73090    0.62770    1.000
    O42      O        0.27670    0.84790    0.70480    1.000
    O43      O        0.05950    0.64300    0.43040    1.000
    O44      O        0.97950    0.71520    0.38610    1.000
    O45      O        0.86610    0.52790    0.38260    1.000
    O46      O        0.82670    0.40410    0.37440    1.000
    O47      O        0.87770    0.61720    0.20490    1.000
    O48      O        0.84270    0.54730    0.09090    1.000
    N11      N        0.13350    0.76550    0.53580    1.000
    N12      N        0.83830    0.49870    0.24210    1.000
    C71      C        0.17240    0.82360    0.59310    1.000
    C72      C        0.15410    0.89890    0.60430    1.000
    H31      H        0.18270    0.93910    0.64590    1.000
    C73      C        0.09350    0.91350    0.55310    1.000
    H32      H        0.07960    0.96490    0.55810    1.000
    C74      C        0.05340    0.85300    0.49510    1.000
    H33      H        0.01150    0.86150    0.46030    1.000
    C75      C        0.07470    0.77960    0.48780    1.000
    C76      C        0.23770    0.79890    0.64660    1.000
    C77      C        0.03480    0.70790    0.42970    1.000
    C78      C        0.81530    0.44540    0.26150    1.000
    C79      C        0.77400    0.38210    0.20700    1.000
    H34      H        0.75550    0.34780    0.21980    1.000
    C80      C        0.76100    0.37140    0.13360    1.000
    H35      H        0.73360    0.32830    0.09520    1.000
    C81      C        0.78780    0.42350    0.11620    1.000
    H36      H        0.78040    0.41520    0.06700    1.000
    C82      C        0.82560    0.48770    0.17170    1.000
    C83      C        0.83730    0.45950    0.34610    1.000
    C84      C        0.85050    0.55430    0.15350    1.000
    Nd13     Nd       0.33129    0.12830    0.98589    1.000
    Nd14     Nd       0.61055    0.13655    0.17363    1.000
    O49      O        0.25281    0.23090    0.87230    1.000
    O50      O        0.22330    0.34790    0.79520    1.000
    O51      O        0.44050    0.14300    0.06960    1.000
    O52      O        0.52050    0.21520    0.11390    1.000
    O53      O        0.63390    0.02790    0.11740    1.000
    O54      O        0.67330    0.90410    0.12560    1.000
    O55      O        0.62230    0.11720    0.29510    1.000
    O56      O        0.65730    0.04730    0.40910    1.000
    N13      N        0.36650    0.26550    0.96420    1.000
    N14      N        0.66170    0.99870    0.25790    1.000
    C85      C        0.32760    0.32360    0.90690    1.000
    C86      C        0.34590    0.39890    0.89570    1.000
    H37      H        0.31730    0.43910    0.85410    1.000
    C87      C        0.40650    0.41350    0.94690    1.000
    H38      H        0.42040    0.46490    0.94190    1.000
    C88      C        0.44660    0.35300    0.00490    1.000
    H39      H        0.48850    0.36150    0.03970    1.000
    C89      C        0.42530    0.27960    0.01220    1.000
    C90      C        0.26230    0.29890    0.85340    1.000
    C91      C        0.46520    0.20790    0.07030    1.000
    C92      C        0.68470    0.94540    0.23850    1.000
    C93      C        0.72600    0.88210    0.29300    1.000
    H40      H        0.74450    0.84780    0.28020    1.000
    C94      C        0.73900    0.87140    0.36640    1.000
    H41      H        0.76640    0.82830    0.40480    1.000
    C95      C        0.71220    0.92350    0.38380    1.000
    H42      H        0.71960    0.91520    0.43300    1.000
    C96      C        0.67440    0.98770    0.32830    1.000
    C97      C        0.66270    0.95950    0.15390    1.000
    C98      C        0.64950    0.05430    0.34650    1.000
    Nd15     Nd       0.83129    0.62830    0.98589    1.000
    Nd16     Nd       0.11055    0.63655    0.17363    1.000
    O57      O        0.75281    0.73090    0.87230    1.000
    O58      O        0.72330    0.84790    0.79520    1.000
    O59      O        0.94050    0.64300    0.06960    1.000
    O60      O        0.02050    0.71520    0.11390    1.000
    O61      O        0.13390    0.52790    0.11740    1.000
    O62      O        0.17330    0.40410    0.12560    1.000
    O63      O        0.12230    0.61720    0.29510    1.000
    O64      O        0.15730    0.54730    0.40910    1.000
    N15      N        0.86650    0.76550    0.96420    1.000
    N16      N        0.16170    0.49870    0.25790    1.000
    C99      C        0.82760    0.82360    0.90690    1.000
    C100     C        0.84590    0.89890    0.89570    1.000
    H43      H        0.81730    0.93910    0.85410    1.000
    C101     C        0.90650    0.91350    0.94690    1.000
    H44      H        0.92040    0.96490    0.94190    1.000
    C102     C        0.94660    0.85300    0.00490    1.000
    H45      H        0.98850    0.86150    0.03970    1.000
    C103     C        0.92530    0.77960    0.01220    1.000
    C104     C        0.76230    0.79890    0.85340    1.000
    C105     C        0.96520    0.70790    0.07030    1.000
    C106     C        0.18470    0.44540    0.23850    1.000
    C107     C        0.22600    0.38210    0.29300    1.000
    H46      H        0.24450    0.34780    0.28020    1.000
    C108     C        0.23900    0.37140    0.36640    1.000
    H47      H        0.26640    0.32830    0.40480    1.000
    C109     C        0.21220    0.42350    0.38380    1.000
    H48      H        0.21960    0.41520    0.43300    1.000
    C110     C        0.17440    0.48770    0.32830    1.000
    C111     C        0.16270    0.45950    0.15390    1.000
    C112     C        0.14950    0.55430    0.34650    1.000
