# CIF file generated by openbabel 3.1.0, see https://openbabel.org
data_I
_chemical_name_common 'UJIZET_clean'
_cell_length_a 8.7253
_cell_length_b 12.7809
_cell_length_c 19.4746
_cell_angle_alpha 90
_cell_angle_beta 90
_cell_angle_gamma 109.959
_space_group_name_H-M_alt 'P 1'
_space_group_name_Hall 'P 1'
loop_
    _symmetry_equiv_pos_as_xyz
    x,y,z
loop_
    _atom_site_label
    _atom_site_type_symbol
    _atom_site_fract_x
    _atom_site_fract_y
    _atom_site_fract_z
    _atom_site_occupancy
    Nd1      Nd       0.25807    0.51614    0.50000    1.000
    Nd2      Nd       0.74193    0.48386    0.00000    1.000
    Nd3      Nd       0.74193    0.48386    0.50000    1.000
    Nd4      Nd       0.25807    0.51614    0.00000    1.000
    H1       H        0.23900    0.90320    0.54160    1.000
    H2       H        0.66280    0.66600    0.68680    1.000
    H3       H        0.66020    0.54040    0.68400    1.000
    H4       H        0.76100    0.09680    0.04160    1.000
    H5       H        0.33720    0.33400    0.18680    1.000
    H6       H        0.33980    0.45960    0.18400    1.000
    H7       H        0.33580    0.09680    0.95840    1.000
    H8       H        0.99680    0.33400    0.81320    1.000
    H9       H        0.11980    0.45960    0.81600    1.000
    H10      H        0.66420    0.90320    0.45840    1.000
    H11      H        0.00320    0.66600    0.31320    1.000
    H12      H        0.88020    0.54040    0.31600    1.000
    H13      H        0.76100    0.09680    0.45840    1.000
    H14      H        0.33720    0.33400    0.31320    1.000
    H15      H        0.33980    0.45960    0.31600    1.000
    H16      H        0.23900    0.90320    0.95840    1.000
    H17      H        0.66280    0.66600    0.81320    1.000
    H18      H        0.66020    0.54040    0.81600    1.000
    H19      H        0.66420    0.90320    0.04160    1.000
    H20      H        0.00320    0.66600    0.18680    1.000
    H21      H        0.88020    0.54040    0.18400    1.000
    H22      H        0.33580    0.09680    0.54160    1.000
    H23      H        0.99680    0.33400    0.68680    1.000
    H24      H        0.11980    0.45960    0.68400    1.000
    H25      H        0.41280    0.60420    0.75000    1.000
    H26      H        0.42030    0.48100    0.75000    1.000
    H27      H        0.58720    0.39580    0.25000    1.000
    H28      H        0.57970    0.51900    0.25000    1.000
    H29      H        0.80860    0.39580    0.75000    1.000
    H30      H        0.93930    0.51900    0.75000    1.000
    H31      H        0.19140    0.60420    0.25000    1.000
    H32      H        0.06070    0.48100    0.25000    1.000
    C1       C        0.34531    0.94242    0.52466    1.000
    C2       C        0.49228    0.56876    0.61974    1.000
    C3       C        0.59026    0.58732    0.68508    1.000
    C4       C        0.65469    0.05758    0.02466    1.000
    C5       C        0.50772    0.43124    0.11974    1.000
    C6       C        0.40974    0.41268    0.18508    1.000
    C7       C        0.40289    0.05758    0.97534    1.000
    C8       C        0.92352    0.43124    0.88026    1.000
    C9       C        0.00294    0.41268    0.81492    1.000
    C10      C        0.59711    0.94242    0.47534    1.000
    C11      C        0.07648    0.56876    0.38026    1.000
    C12      C        0.99706    0.58732    0.31492    1.000
    C13      C        0.65469    0.05758    0.47534    1.000
    C14      C        0.50772    0.43124    0.38026    1.000
    C15      C        0.40974    0.41268    0.31492    1.000
    C16      C        0.34531    0.94242    0.97534    1.000
    C17      C        0.49228    0.56876    0.88026    1.000
    C18      C        0.59026    0.58732    0.81492    1.000
    C19      C        0.59711    0.94242    0.02466    1.000
    C20      C        0.07648    0.56876    0.11974    1.000
    C21      C        0.99706    0.58732    0.18508    1.000
    C22      C        0.40289    0.05758    0.52466    1.000
    C23      C        0.92352    0.43124    0.61974    1.000
    C24      C        0.00294    0.41268    0.68508    1.000
    C25      C        0.37958    0.75916    0.50000    1.000
    C26      C        0.44175    0.88350    0.50000    1.000
    C27      C        0.62042    0.24084    0.00000    1.000
    C28      C        0.55825    0.11650    0.00000    1.000
    C29      C        0.62042    0.24084    0.50000    1.000
    C30      C        0.55825    0.11650    0.50000    1.000
    C31      C        0.37958    0.75916    0.00000    1.000
    C32      C        0.44175    0.88350    0.00000    1.000
    C33      C        0.48764    0.56088    0.75000    1.000
    C34      C        0.51236    0.43912    0.25000    1.000
    C35      C        0.92676    0.43912    0.75000    1.000
    C36      C        0.07324    0.56088    0.25000    1.000
    O1       O        0.23509    0.70698    0.51954    1.000
    O2       O        0.35586    0.58272    0.61886    1.000
    O3       O        0.54654    0.53908    0.56543    1.000
    O4       O        0.76491    0.29302    0.01954    1.000
    O5       O        0.64414    0.41728    0.11886    1.000
    O6       O        0.45346    0.46092    0.06543    1.000
    O7       O        0.52811    0.29302    0.98046    1.000
    O8       O        0.77314    0.41728    0.88114    1.000
    O9       O        0.00746    0.46092    0.93457    1.000
    O10      O        0.47189    0.70698    0.48046    1.000
    O11      O        0.22686    0.58272    0.38114    1.000
    O12      O        0.99254    0.53908    0.43457    1.000
    O13      O        0.76491    0.29302    0.48046    1.000
    O14      O        0.64414    0.41728    0.38114    1.000
    O15      O        0.45346    0.46092    0.43457    1.000
    O16      O        0.23509    0.70698    0.98046    1.000
    O17      O        0.35586    0.58272    0.88114    1.000
    O18      O        0.54654    0.53908    0.93457    1.000
    O19      O        0.47189    0.70698    0.01954    1.000
    O20      O        0.22686    0.58272    0.11886    1.000
    O21      O        0.99254    0.53908    0.06543    1.000
    O22      O        0.52811    0.29302    0.51954    1.000
    O23      O        0.77314    0.41728    0.61886    1.000
    O24      O        0.00746    0.46092    0.56543    1.000
