# CIF file generated by openbabel 3.1.0, see https://openbabel.org
data_I
_chemical_name_common 'image0'
_cell_length_a 6.7883
_cell_length_b 14.484
_cell_length_c 28.9167
_cell_angle_alpha 90
_cell_angle_beta 93.295
_cell_angle_gamma 90
_space_group_name_H-M_alt 'P 1'
_space_group_name_Hall 'P 1'
loop_
    _symmetry_equiv_pos_as_xyz
    x,y,z
loop_
    _atom_site_label
    _atom_site_type_symbol
    _atom_site_fract_x
    _atom_site_fract_y
    _atom_site_fract_z
    _atom_site_occupancy
    Ni1      Ni       0.99864    0.77426    0.25358    1.000
    Ni2      Ni       0.50360    0.52446    0.24623    1.000
    N1       N        0.80260    0.37310    0.26627    1.000
    N2       N        0.86020    0.72700    0.68631    1.000
    N3       N        0.79880    0.67430    0.27261    1.000
    N4       N        0.13790    0.77300    0.32082    1.000
    C1       C        0.68730    0.43200    0.26188    1.000
    N5       N        0.19120    0.67190    0.23576    1.000
    N6       N        0.19400    0.37710    0.22871    1.000
    C2       C        0.33450    0.77450    0.32818    1.000
    H1       H        0.41360    0.77900    0.30220    1.000
    C3       C        0.66370    0.72450    0.67867    1.000
    H2       H        0.58400    0.71970    0.70450    1.000
    C4       C        0.31720    0.79030    0.49668    1.000
    H3       H        0.19110    0.81850    0.49230    1.000
    C5       C        0.40950    0.75600    0.45837    1.000
    C6       C        0.68270    0.70750    0.51037    1.000
    H4       H        0.80820    0.67880    0.51470    1.000
    C7       C        0.59200    0.74190    0.54845    1.000
    C8       C        0.31490    0.76200    0.41103    1.000
    C9       C        0.57210    0.72880    0.63483    1.000
    H5       H        0.43220    0.72710    0.63100    1.000
    C10      C        0.68520    0.73550    0.59596    1.000
    C11      C        0.03100    0.76660    0.35795    1.000
    H6       H        0.89140    0.76590    0.35320    1.000
    C12      C        0.42700    0.76980    0.37193    1.000
    H7       H        0.56690    0.77180    0.37550    1.000
    C13      C        0.96810    0.73300    0.64918    1.000
    H8       H        0.10770    0.73460    0.65410    1.000
    C14      C        0.40540    0.78390    0.54072    1.000
    H9       H        0.33980    0.80820    0.56620    1.000
    C15      C        0.59480    0.71390    0.46605    1.000
    H10      H        0.66060    0.68960    0.44060    1.000
    C16      C        0.88910    0.73680    0.60434    1.000
    H11      H        0.97320    0.74020    0.57920    1.000
    C17      C        0.11100    0.76090    0.40270    1.000
    H12      H        0.02720    0.75630    0.42780    1.000
    C18      C        0.31040    0.61500    0.23815    1.000
    C19      C        0.68390    0.61590    0.26577    1.000
    C20      C        0.31170    0.43410    0.23398    1.000
    Ni3      Ni       0.00136    0.27426    0.24642    1.000
    Ni4      Ni       0.49640    0.02446    0.25377    1.000
    N7       N        0.19740    0.87310    0.23373    1.000
    N8       N        0.13980    0.22700    0.81369    1.000
    N9       N        0.20120    0.17430    0.22739    1.000
    N10      N        0.86210    0.27300    0.17918    1.000
    C21      C        0.31270    0.93200    0.23812    1.000
    N11      N        0.80880    0.17190    0.26424    1.000
    N12      N        0.80600    0.87710    0.27129    1.000
    C22      C        0.66550    0.27450    0.17182    1.000
    H13      H        0.58640    0.27900    0.19780    1.000
    C23      C        0.33630    0.22450    0.82133    1.000
    H14      H        0.41600    0.21970    0.79550    1.000
    C24      C        0.68280    0.29030    0.00332    1.000
    H15      H        0.80890    0.31850    0.00770    1.000
    C25      C        0.59050    0.25600    0.04163    1.000
    C26      C        0.31730    0.20750    0.98963    1.000
    H16      H        0.19180    0.17880    0.98530    1.000
    C27      C        0.40800    0.24190    0.95155    1.000
    C28      C        0.68510    0.26200    0.08897    1.000
    C29      C        0.42790    0.22880    0.86517    1.000
    H17      H        0.56780    0.22710    0.86900    1.000
    C30      C        0.31480    0.23550    0.90404    1.000
    C31      C        0.96900    0.26660    0.14205    1.000
    H18      H        0.10860    0.26590    0.14680    1.000
    C32      C        0.57300    0.26980    0.12807    1.000
    H19      H        0.43310    0.27180    0.12450    1.000
    C33      C        0.03190    0.23300    0.85082    1.000
    H20      H        0.89230    0.23460    0.84590    1.000
    C34      C        0.59460    0.28390    0.95928    1.000
    H21      H        0.66020    0.30820    0.93380    1.000
    C35      C        0.40520    0.21390    0.03395    1.000
    H22      H        0.33940    0.18960    0.05940    1.000
    C36      C        0.11090    0.23680    0.89566    1.000
    H23      H        0.02680    0.24020    0.92080    1.000
    C37      C        0.88900    0.26090    0.09730    1.000
    H24      H        0.97280    0.25630    0.07220    1.000
    C38      C        0.68960    0.11500    0.26185    1.000
    C39      C        0.31610    0.11590    0.23423    1.000
    C40      C        0.68830    0.93410    0.26602    1.000
    Ni5      Ni       0.00136    0.22574    0.74642    1.000
    Ni6      Ni       0.49640    0.47554    0.75377    1.000
    N13      N        0.19740    0.62690    0.73373    1.000
    N14      N        0.13980    0.27300    0.31369    1.000
    N15      N        0.20120    0.32570    0.72739    1.000
    N16      N        0.86210    0.22700    0.67918    1.000
    C41      C        0.31270    0.56800    0.73812    1.000
    N17      N        0.80880    0.32810    0.76424    1.000
    N18      N        0.80600    0.62290    0.77129    1.000
    C42      C        0.66550    0.22550    0.67182    1.000
    H25      H        0.58640    0.22100    0.69780    1.000
    C43      C        0.33630    0.27550    0.32133    1.000
    H26      H        0.41600    0.28030    0.29550    1.000
    C44      C        0.68280    0.20970    0.50332    1.000
    H27      H        0.80890    0.18150    0.50770    1.000
    C45      C        0.59050    0.24400    0.54163    1.000
    C46      C        0.31730    0.29250    0.48963    1.000
    H28      H        0.19180    0.32120    0.48530    1.000
    C47      C        0.40800    0.25810    0.45155    1.000
    C48      C        0.68510    0.23800    0.58897    1.000
    C49      C        0.42790    0.27120    0.36517    1.000
    H29      H        0.56780    0.27290    0.36900    1.000
    C50      C        0.31480    0.26450    0.40404    1.000
    C51      C        0.96900    0.23340    0.64205    1.000
    H30      H        0.10860    0.23410    0.64680    1.000
    C52      C        0.57300    0.23020    0.62807    1.000
    H31      H        0.43310    0.22820    0.62450    1.000
    C53      C        0.03190    0.26700    0.35082    1.000
    H32      H        0.89230    0.26540    0.34590    1.000
    C54      C        0.59460    0.21610    0.45928    1.000
    H33      H        0.66020    0.19180    0.43380    1.000
    C55      C        0.40520    0.28610    0.53395    1.000
    H34      H        0.33940    0.31040    0.55940    1.000
    C56      C        0.11090    0.26320    0.39566    1.000
    H35      H        0.02680    0.25980    0.42080    1.000
    C57      C        0.88900    0.23910    0.59730    1.000
    H36      H        0.97280    0.24370    0.57220    1.000
    C58      C        0.68960    0.38500    0.76185    1.000
    C59      C        0.31610    0.38410    0.73423    1.000
    C60      C        0.68830    0.56590    0.76602    1.000
    Ni7      Ni       0.99864    0.72574    0.75358    1.000
    Ni8      Ni       0.50360    0.97554    0.74623    1.000
    N19      N        0.80260    0.12690    0.76627    1.000
    N20      N        0.86020    0.77300    0.18631    1.000
    N21      N        0.79880    0.82570    0.77261    1.000
    N22      N        0.13790    0.72700    0.82082    1.000
    C61      C        0.68730    0.06800    0.76188    1.000
    N23      N        0.19120    0.82810    0.73576    1.000
    N24      N        0.19400    0.12290    0.72871    1.000
    C62      C        0.33450    0.72550    0.82818    1.000
    H37      H        0.41360    0.72100    0.80220    1.000
    C63      C        0.66370    0.77550    0.17867    1.000
    H38      H        0.58400    0.78030    0.20450    1.000
    C64      C        0.31720    0.70970    0.99668    1.000
    H39      H        0.19110    0.68150    0.99230    1.000
    C65      C        0.40950    0.74400    0.95837    1.000
    C66      C        0.68270    0.79250    0.01037    1.000
    H40      H        0.80820    0.82120    0.01470    1.000
    C67      C        0.59200    0.75810    0.04845    1.000
    C68      C        0.31490    0.73800    0.91103    1.000
    C69      C        0.57210    0.77120    0.13483    1.000
    H41      H        0.43220    0.77290    0.13100    1.000
    C70      C        0.68520    0.76450    0.09596    1.000
    C71      C        0.03100    0.73340    0.85795    1.000
    H42      H        0.89140    0.73410    0.85320    1.000
    C72      C        0.42700    0.73020    0.87193    1.000
    H43      H        0.56690    0.72820    0.87550    1.000
    C73      C        0.96810    0.76700    0.14918    1.000
    H44      H        0.10770    0.76540    0.15410    1.000
    C74      C        0.40540    0.71610    0.04072    1.000
    H45      H        0.33980    0.69180    0.06620    1.000
    C75      C        0.59480    0.78610    0.96605    1.000
    H46      H        0.66060    0.81040    0.94060    1.000
    C76      C        0.88910    0.76320    0.10434    1.000
    H47      H        0.97320    0.75980    0.07920    1.000
    C77      C        0.11100    0.73910    0.90270    1.000
    H48      H        0.02720    0.74370    0.92780    1.000
    C78      C        0.31040    0.88500    0.73815    1.000
    C79      C        0.68390    0.88410    0.76577    1.000
    C80      C        0.31170    0.06590    0.73398    1.000
