# CIF file generated by openbabel 3.1.0, see https://openbabel.org
data_I
_chemical_name_common 'image0'
_cell_length_a 21.999
_cell_length_b 21.999
_cell_length_c 16.7023
_cell_angle_alpha 90
_cell_angle_beta 90
_cell_angle_gamma 90
_space_group_name_H-M_alt 'P 1'
_space_group_name_Hall 'P 1'
loop_
    _symmetry_equiv_pos_as_xyz
    x,y,z
loop_
    _atom_site_label
    _atom_site_type_symbol
    _atom_site_fract_x
    _atom_site_fract_y
    _atom_site_fract_z
    _atom_site_occupancy
    Ce1      Ce       0.82438    0.85859    0.36543    1.000
    N1       N        0.86430    0.91770    0.23800    1.000
    O1       O        0.72100    0.93130    0.14280    1.000
    O2       O        0.74910    0.88880    0.25930    1.000
    O3       O        0.01610    0.92260    0.29710    1.000
    O4       O        0.93470    0.88490    0.35700    1.000
    C1       C        0.76000    0.91790    0.19420    1.000
    C2       C        0.82580    0.93540    0.18020    1.000
    C3       C        0.84380    0.96860    0.11430    1.000
    H1       H        0.81600    0.97920    0.07480    1.000
    C4       C        0.90410    0.98590    0.10830    1.000
    H2       H        0.91770    0.00960    0.06580    1.000
    C5       C        0.94450    0.96620    0.16930    1.000
    H3       H        0.98570    0.97510    0.16670    1.000
    C6       C        0.92120    0.93380    0.23170    1.000
    C7       C        0.96130    0.91320    0.30050    1.000
    Ce2      Ce       0.32438    0.35859    0.86543    1.000
    N2       N        0.36430    0.41770    0.73800    1.000
    O5       O        0.22100    0.43130    0.64280    1.000
    O6       O        0.24910    0.38880    0.75930    1.000
    O7       O        0.51610    0.42260    0.79710    1.000
    O8       O        0.43470    0.38490    0.85700    1.000
    C8       C        0.26000    0.41790    0.69420    1.000
    C9       C        0.32580    0.43540    0.68020    1.000
    C10      C        0.34380    0.46860    0.61430    1.000
    H4       H        0.31600    0.47920    0.57480    1.000
    C11      C        0.40410    0.48590    0.60830    1.000
    H5       H        0.41770    0.50960    0.56580    1.000
    C12      C        0.44450    0.46620    0.66930    1.000
    H6       H        0.48570    0.47510    0.66670    1.000
    C13      C        0.42120    0.43380    0.73170    1.000
    C14      C        0.46130    0.41320    0.80050    1.000
    Ce3      Ce       0.67562    0.14141    0.86543    1.000
    N3       N        0.63570    0.08230    0.73800    1.000
    O9       O        0.77900    0.06870    0.64280    1.000
    O10      O        0.75090    0.11120    0.75930    1.000
    O11      O        0.48390    0.07740    0.79710    1.000
    O12      O        0.56530    0.11510    0.85700    1.000
    C15      C        0.74000    0.08210    0.69420    1.000
    C16      C        0.67420    0.06460    0.68020    1.000
    C17      C        0.65620    0.03140    0.61430    1.000
    H7       H        0.68400    0.02080    0.57480    1.000
    C18      C        0.59590    0.01410    0.60830    1.000
    H8       H        0.58230    0.99040    0.56580    1.000
    C19      C        0.55550    0.03380    0.66930    1.000
    H9       H        0.51430    0.02490    0.66670    1.000
    C20      C        0.57880    0.06620    0.73170    1.000
    C21      C        0.53870    0.08680    0.80050    1.000
    Ce4      Ce       0.17562    0.64141    0.36543    1.000
    N4       N        0.13570    0.58230    0.23800    1.000
    O13      O        0.27900    0.56870    0.14280    1.000
    O14      O        0.25090    0.61120    0.25930    1.000
    O15      O        0.98390    0.57740    0.29710    1.000
    O16      O        0.06530    0.61510    0.35700    1.000
    C22      C        0.24000    0.58210    0.19420    1.000
    C23      C        0.17420    0.56460    0.18020    1.000
    C24      C        0.15620    0.53140    0.11430    1.000
    H10      H        0.18400    0.52080    0.07480    1.000
    C25      C        0.09590    0.51410    0.10830    1.000
    H11      H        0.08230    0.49040    0.06580    1.000
    C26      C        0.05550    0.53380    0.16930    1.000
    H12      H        0.01430    0.52490    0.16670    1.000
    C27      C        0.07880    0.56620    0.23170    1.000
    C28      C        0.03870    0.58680    0.30050    1.000
    Ce5      Ce       0.89141    0.07438    0.61543    1.000
    N5       N        0.83230    0.11430    0.48800    1.000
    O17      O        0.81870    0.97100    0.39280    1.000
    O18      O        0.86120    0.99910    0.50930    1.000
    O19      O        0.82740    0.26610    0.54710    1.000
    O20      O        0.86510    0.18470    0.60700    1.000
    C29      C        0.83210    0.01000    0.44420    1.000
    C30      C        0.81460    0.07580    0.43020    1.000
    C31      C        0.78140    0.09380    0.36430    1.000
    H13      H        0.77080    0.06600    0.32480    1.000
    C32      C        0.76410    0.15410    0.35830    1.000
    H14      H        0.74040    0.16770    0.31580    1.000
    C33      C        0.78380    0.19450    0.41930    1.000
    H15      H        0.77490    0.23570    0.41670    1.000
    C34      C        0.81620    0.17120    0.48170    1.000
    C35      C        0.83680    0.21130    0.55050    1.000
    Ce6      Ce       0.39141    0.57438    0.11543    1.000
    N6       N        0.33230    0.61430    0.98800    1.000
    O21      O        0.31870    0.47100    0.89280    1.000
    O22      O        0.36120    0.49910    0.00930    1.000
    O23      O        0.32740    0.76610    0.04710    1.000
    O24      O        0.36510    0.68470    0.10700    1.000
    C36      C        0.33210    0.51000    0.94420    1.000
    C37      C        0.31460    0.57580    0.93020    1.000
    C38      C        0.28140    0.59380    0.86430    1.000
    H16      H        0.27080    0.56600    0.82480    1.000
    C39      C        0.26410    0.65410    0.85830    1.000
    H17      H        0.24040    0.66770    0.81580    1.000
    C40      C        0.28380    0.69450    0.91930    1.000
    H18      H        0.27490    0.73570    0.91670    1.000
    C41      C        0.31620    0.67120    0.98170    1.000
    C42      C        0.33680    0.71130    0.05050    1.000
    Ce7      Ce       0.60859    0.92562    0.11543    1.000
    N7       N        0.66770    0.88570    0.98800    1.000
    O25      O        0.68130    0.02900    0.89280    1.000
    O26      O        0.63880    0.00090    0.00930    1.000
    O27      O        0.67260    0.73390    0.04710    1.000
    O28      O        0.63490    0.81530    0.10700    1.000
    C43      C        0.66790    0.99000    0.94420    1.000
    C44      C        0.68540    0.92420    0.93020    1.000
    C45      C        0.71860    0.90620    0.86430    1.000
    H19      H        0.72920    0.93400    0.82480    1.000
    C46      C        0.73590    0.84590    0.85830    1.000
    H20      H        0.75960    0.83230    0.81580    1.000
    C47      C        0.71620    0.80550    0.91930    1.000
    H21      H        0.72510    0.76430    0.91670    1.000
    C48      C        0.68380    0.82880    0.98170    1.000
    C49      C        0.66320    0.78870    0.05050    1.000
    Ce8      Ce       0.10859    0.42562    0.61543    1.000
    N8       N        0.16770    0.38570    0.48800    1.000
    O29      O        0.18130    0.52900    0.39280    1.000
    O30      O        0.13880    0.50090    0.50930    1.000
    O31      O        0.17260    0.23390    0.54710    1.000
    O32      O        0.13490    0.31530    0.60700    1.000
    C50      C        0.16790    0.49000    0.44420    1.000
    C51      C        0.18540    0.42420    0.43020    1.000
    C52      C        0.21860    0.40620    0.36430    1.000
    H22      H        0.22920    0.43400    0.32480    1.000
    C53      C        0.23590    0.34590    0.35830    1.000
    H23      H        0.25960    0.33230    0.31580    1.000
    C54      C        0.21620    0.30550    0.41930    1.000
    H24      H        0.22510    0.26430    0.41670    1.000
    C55      C        0.18380    0.32880    0.48170    1.000
    C56      C        0.16320    0.28870    0.55050    1.000
    Ce9      Ce       0.17562    0.14141    0.63457    1.000
    N9       N        0.13570    0.08230    0.76200    1.000
    O33      O        0.27900    0.06870    0.85720    1.000
    O34      O        0.25090    0.11120    0.74070    1.000
    O35      O        0.98390    0.07740    0.70290    1.000
    O36      O        0.06530    0.11510    0.64300    1.000
    C57      C        0.24000    0.08210    0.80580    1.000
    C58      C        0.17420    0.06460    0.81980    1.000
    C59      C        0.15620    0.03140    0.88570    1.000
    H25      H        0.18400    0.02080    0.92520    1.000
    C60      C        0.09590    0.01410    0.89170    1.000
    H26      H        0.08230    0.99040    0.93420    1.000
    C61      C        0.05550    0.03380    0.83070    1.000
    H27      H        0.01430    0.02490    0.83330    1.000
    C62      C        0.07880    0.06620    0.76830    1.000
    C63      C        0.03870    0.08680    0.69950    1.000
    Ce10     Ce       0.67562    0.64141    0.13457    1.000
    N10      N        0.63570    0.58230    0.26200    1.000
    O37      O        0.77900    0.56870    0.35720    1.000
    O38      O        0.75090    0.61120    0.24070    1.000
    O39      O        0.48390    0.57740    0.20290    1.000
    O40      O        0.56530    0.61510    0.14300    1.000
    C64      C        0.74000    0.58210    0.30580    1.000
    C65      C        0.67420    0.56460    0.31980    1.000
    C66      C        0.65620    0.53140    0.38570    1.000
    H28      H        0.68400    0.52080    0.42520    1.000
    C67      C        0.59590    0.51410    0.39170    1.000
    H29      H        0.58230    0.49040    0.43420    1.000
    C68      C        0.55550    0.53380    0.33070    1.000
    H30      H        0.51430    0.52490    0.33330    1.000
    C69      C        0.57880    0.56620    0.26830    1.000
    C70      C        0.53870    0.58680    0.19950    1.000
    Ce11     Ce       0.32438    0.85859    0.13457    1.000
    N11      N        0.36430    0.91770    0.26200    1.000
    O41      O        0.22100    0.93130    0.35720    1.000
    O42      O        0.24910    0.88880    0.24070    1.000
    O43      O        0.51610    0.92260    0.20290    1.000
    O44      O        0.43470    0.88490    0.14300    1.000
    C71      C        0.26000    0.91790    0.30580    1.000
    C72      C        0.32580    0.93540    0.31980    1.000
    C73      C        0.34380    0.96860    0.38570    1.000
    H31      H        0.31600    0.97920    0.42520    1.000
    C74      C        0.40410    0.98590    0.39170    1.000
    H32      H        0.41770    0.00960    0.43420    1.000
    C75      C        0.44450    0.96620    0.33070    1.000
    H33      H        0.48570    0.97510    0.33330    1.000
    C76      C        0.42120    0.93380    0.26830    1.000
    C77      C        0.46130    0.91320    0.19950    1.000
    Ce12     Ce       0.82438    0.35859    0.63457    1.000
    N12      N        0.86430    0.41770    0.76200    1.000
    O45      O        0.72100    0.43130    0.85720    1.000
    O46      O        0.74910    0.38880    0.74070    1.000
    O47      O        0.01610    0.42260    0.70290    1.000
    O48      O        0.93470    0.38490    0.64300    1.000
    C78      C        0.76000    0.41790    0.80580    1.000
    C79      C        0.82580    0.43540    0.81980    1.000
    C80      C        0.84380    0.46860    0.88570    1.000
    H34      H        0.81600    0.47920    0.92520    1.000
    C81      C        0.90410    0.48590    0.89170    1.000
    H35      H        0.91770    0.50960    0.93420    1.000
    C82      C        0.94450    0.46620    0.83070    1.000
    H36      H        0.98570    0.47510    0.83330    1.000
    C83      C        0.92120    0.43380    0.76830    1.000
    C84      C        0.96130    0.41320    0.69950    1.000
    Ce13     Ce       0.10859    0.92562    0.38457    1.000
    N13      N        0.16770    0.88570    0.51200    1.000
    O49      O        0.18130    0.02900    0.60720    1.000
    O50      O        0.13880    0.00090    0.49070    1.000
    O51      O        0.17260    0.73390    0.45290    1.000
    O52      O        0.13490    0.81530    0.39300    1.000
    C85      C        0.16790    0.99000    0.55580    1.000
    C86      C        0.18540    0.92420    0.56980    1.000
    C87      C        0.21860    0.90620    0.63570    1.000
    H37      H        0.22920    0.93400    0.67520    1.000
    C88      C        0.23590    0.84590    0.64170    1.000
    H38      H        0.25960    0.83230    0.68420    1.000
    C89      C        0.21620    0.80550    0.58070    1.000
    H39      H        0.22510    0.76430    0.58330    1.000
    C90      C        0.18380    0.82880    0.51830    1.000
    C91      C        0.16320    0.78870    0.44950    1.000
    Ce14     Ce       0.60859    0.42562    0.88457    1.000
    N14      N        0.66770    0.38570    0.01200    1.000
    O53      O        0.68130    0.52900    0.10720    1.000
    O54      O        0.63880    0.50090    0.99070    1.000
    O55      O        0.67260    0.23390    0.95290    1.000
    O56      O        0.63490    0.31530    0.89300    1.000
    C92      C        0.66790    0.49000    0.05580    1.000
    C93      C        0.68540    0.42420    0.06980    1.000
    C94      C        0.71860    0.40620    0.13570    1.000
    H40      H        0.72920    0.43400    0.17520    1.000
    C95      C        0.73590    0.34590    0.14170    1.000
    H41      H        0.75960    0.33230    0.18420    1.000
    C96      C        0.71620    0.30550    0.08070    1.000
    H42      H        0.72510    0.26430    0.08330    1.000
    C97      C        0.68380    0.32880    0.01830    1.000
    C98      C        0.66320    0.28870    0.94950    1.000
    Ce15     Ce       0.39141    0.07438    0.88457    1.000
    N15      N        0.33230    0.11430    0.01200    1.000
    O57      O        0.31870    0.97100    0.10720    1.000
    O58      O        0.36120    0.99910    0.99070    1.000
    O59      O        0.32740    0.26610    0.95290    1.000
    O60      O        0.36510    0.18470    0.89300    1.000
    C99      C        0.33210    0.01000    0.05580    1.000
    C100     C        0.31460    0.07580    0.06980    1.000
    C101     C        0.28140    0.09380    0.13570    1.000
    H43      H        0.27080    0.06600    0.17520    1.000
    C102     C        0.26410    0.15410    0.14170    1.000
    H44      H        0.24040    0.16770    0.18420    1.000
    C103     C        0.28380    0.19450    0.08070    1.000
    H45      H        0.27490    0.23570    0.08330    1.000
    C104     C        0.31620    0.17120    0.01830    1.000
    C105     C        0.33680    0.21130    0.94950    1.000
    Ce16     Ce       0.89141    0.57438    0.38457    1.000
    N16      N        0.83230    0.61430    0.51200    1.000
    O61      O        0.81870    0.47100    0.60720    1.000
    O62      O        0.86120    0.49910    0.49070    1.000
    O63      O        0.82740    0.76610    0.45290    1.000
    O64      O        0.86510    0.68470    0.39300    1.000
    C106     C        0.83210    0.51000    0.55580    1.000
    C107     C        0.81460    0.57580    0.56980    1.000
    C108     C        0.78140    0.59380    0.63570    1.000
    H46      H        0.77080    0.56600    0.67520    1.000
    C109     C        0.76410    0.65410    0.64170    1.000
    H47      H        0.74040    0.66770    0.68420    1.000
    C110     C        0.78380    0.69450    0.58070    1.000
    H48      H        0.77490    0.73570    0.58330    1.000
    C111     C        0.81620    0.67120    0.51830    1.000
    C112     C        0.83680    0.71130    0.44950    1.000
