# CIF file generated by openbabel 3.1.0, see https://openbabel.org
data_I
_chemical_name_common 'image0'
_cell_length_a 16.1284
_cell_length_b 16.1284
_cell_length_c 5.2134
_cell_angle_alpha 90
_cell_angle_beta 90
_cell_angle_gamma 90
_space_group_name_H-M_alt 'P 1'
_space_group_name_Hall 'P 1'
loop_
    _symmetry_equiv_pos_as_xyz
    x,y,z
loop_
    _atom_site_label
    _atom_site_type_symbol
    _atom_site_fract_x
    _atom_site_fract_y
    _atom_site_fract_z
    _atom_site_occupancy
    C1       C        0.24613    0.05612    0.75810    1.000
    H1       H        0.28520    0.07550    0.64130    1.000
    C2       C        0.22691    0.97353    0.75720    1.000
    H2       H        0.25270    0.93760    0.64250    1.000
    C3       C        0.16867    0.94419    0.92900    1.000
    H3       H        0.15500    0.88820    0.93240    1.000
    C4       C        0.13104    0.99912    0.09600    1.000
    C5       C        0.15470    0.08182    0.08510    1.000
    H4       H        0.13010    0.11910    0.19800    1.000
    C6       C        0.06797    0.97074    0.27860    1.000
    H5       H        0.05660    0.91430    0.29040    1.000
    N1       N        0.21108    0.11017    0.92000    1.000
    N2       N        0.02871    0.02037    0.41980    1.000
    C7       C        0.25387    0.44388    0.75810    1.000
    H6       H        0.21480    0.42450    0.64130    1.000
    C8       C        0.27309    0.52647    0.75720    1.000
    H7       H        0.24730    0.56240    0.64250    1.000
    C9       C        0.33133    0.55581    0.92900    1.000
    H8       H        0.34500    0.61180    0.93240    1.000
    C10      C        0.36896    0.50088    0.09600    1.000
    C11      C        0.34530    0.41818    0.08510    1.000
    H9       H        0.36990    0.38090    0.19800    1.000
    C12      C        0.43203    0.52926    0.27860    1.000
    H10      H        0.44340    0.58570    0.29040    1.000
    N3       N        0.28892    0.38983    0.92000    1.000
    N4       N        0.47129    0.47963    0.41980    1.000
    C13      C        0.44388    0.24613    0.75810    1.000
    H11      H        0.42450    0.28520    0.64130    1.000
    C14      C        0.52647    0.22691    0.75720    1.000
    H12      H        0.56240    0.25270    0.64250    1.000
    C15      C        0.55581    0.16867    0.92900    1.000
    H13      H        0.61180    0.15500    0.93240    1.000
    C16      C        0.50088    0.13104    0.09600    1.000
    C17      C        0.41818    0.15470    0.08510    1.000
    H14      H        0.38090    0.13010    0.19800    1.000
    C18      C        0.52926    0.06797    0.27860    1.000
    H15      H        0.58570    0.05660    0.29040    1.000
    N5       N        0.38983    0.21108    0.92000    1.000
    N6       N        0.47963    0.02871    0.41980    1.000
    C19      C        0.05612    0.25387    0.75810    1.000
    H16      H        0.07550    0.21480    0.64130    1.000
    C20      C        0.97353    0.27309    0.75720    1.000
    H17      H        0.93760    0.24730    0.64250    1.000
    C21      C        0.94419    0.33133    0.92900    1.000
    H18      H        0.88820    0.34500    0.93240    1.000
    C22      C        0.99912    0.36896    0.09600    1.000
    C23      C        0.08182    0.34530    0.08510    1.000
    H19      H        0.11910    0.36990    0.19800    1.000
    C24      C        0.97074    0.43203    0.27860    1.000
    H20      H        0.91430    0.44340    0.29040    1.000
    N7       N        0.11017    0.28892    0.92000    1.000
    N8       N        0.02037    0.47129    0.41980    1.000
    C25      C        0.75387    0.94388    0.24190    1.000
    H21      H        0.71480    0.92450    0.35870    1.000
    C26      C        0.77309    0.02647    0.24280    1.000
    H22      H        0.74730    0.06240    0.35750    1.000
    C27      C        0.83133    0.05581    0.07100    1.000
    H23      H        0.84500    0.11180    0.06760    1.000
    C28      C        0.86896    0.00088    0.90400    1.000
    C29      C        0.84530    0.91818    0.91490    1.000
    H24      H        0.86990    0.88090    0.80200    1.000
    C30      C        0.93203    0.02926    0.72140    1.000
    H25      H        0.94340    0.08570    0.70960    1.000
    N9       N        0.78892    0.88983    0.08000    1.000
    N10      N        0.97129    0.97963    0.58020    1.000
    C31      C        0.74613    0.55612    0.24190    1.000
    H26      H        0.78520    0.57550    0.35870    1.000
    C32      C        0.72691    0.47353    0.24280    1.000
    H27      H        0.75270    0.43760    0.35750    1.000
    C33      C        0.66867    0.44419    0.07100    1.000
    H28      H        0.65500    0.38820    0.06760    1.000
    C34      C        0.63104    0.49912    0.90400    1.000
    C35      C        0.65470    0.58182    0.91490    1.000
    H29      H        0.63010    0.61910    0.80200    1.000
    C36      C        0.56797    0.47074    0.72140    1.000
    H30      H        0.55660    0.41430    0.70960    1.000
    N11      N        0.71108    0.61017    0.08000    1.000
    N12      N        0.52871    0.52037    0.58020    1.000
    C37      C        0.55612    0.75387    0.24190    1.000
    H31      H        0.57550    0.71480    0.35870    1.000
    C38      C        0.47353    0.77309    0.24280    1.000
    H32      H        0.43760    0.74730    0.35750    1.000
    C39      C        0.44419    0.83133    0.07100    1.000
    H33      H        0.38820    0.84500    0.06760    1.000
    C40      C        0.49912    0.86896    0.90400    1.000
    C41      C        0.58182    0.84530    0.91490    1.000
    H34      H        0.61910    0.86990    0.80200    1.000
    C42      C        0.47074    0.93203    0.72140    1.000
    H35      H        0.41430    0.94340    0.70960    1.000
    N13      N        0.61017    0.78892    0.08000    1.000
    N14      N        0.52037    0.97129    0.58020    1.000
    C43      C        0.94388    0.74613    0.24190    1.000
    H36      H        0.92450    0.78520    0.35870    1.000
    C44      C        0.02647    0.72691    0.24280    1.000
    H37      H        0.06240    0.75270    0.35750    1.000
    C45      C        0.05581    0.66867    0.07100    1.000
    H38      H        0.11180    0.65500    0.06760    1.000
    C46      C        0.00088    0.63104    0.90400    1.000
    C47      C        0.91818    0.65470    0.91490    1.000
    H39      H        0.88090    0.63010    0.80200    1.000
    C48      C        0.02926    0.56797    0.72140    1.000
    H40      H        0.08570    0.55660    0.70960    1.000
    N15      N        0.88983    0.71108    0.08000    1.000
    N16      N        0.97963    0.52871    0.58020    1.000
    Cl1      Cl       0.25000    0.25000    0.41877    1.000
    Cd1      Cd       0.25000    0.25000    0.91827    1.000
    Cl2      Cl       0.75000    0.75000    0.58123    1.000
    Cd2      Cd       0.75000    0.75000    0.08173    1.000
