# CIF file generated by openbabel 3.1.0, see https://openbabel.org
data_I
_chemical_name_common 'image0'
_cell_length_a 15.6069
_cell_length_b 26.4325
_cell_length_c 16.6221
_cell_angle_alpha 90
_cell_angle_beta 90.155
_cell_angle_gamma 90
_space_group_name_H-M_alt 'P 1'
_space_group_name_Hall 'P 1'
loop_
    _symmetry_equiv_pos_as_xyz
    x,y,z
loop_
    _atom_site_label
    _atom_site_type_symbol
    _atom_site_fract_x
    _atom_site_fract_y
    _atom_site_fract_z
    _atom_site_occupancy
    Co1      Co       0.41582    0.36329    0.74952    1.000
    Co2      Co       0.54511    0.25655    0.75191    1.000
    Co3      Co       0.13883    0.12329    0.25012    1.000
    O1       O        0.61990    0.26428    0.64970    1.000
    O2       O        0.70640    0.33095    0.67260    1.000
    C1       C        0.68310    0.29190    0.63530    1.000
    O3       O        0.86560    0.18929    0.32920    1.000
    C2       C        0.89580    0.22660    0.36640    1.000
    O4       O        0.96360    0.24993    0.35140    1.000
    C3       C        0.84360    0.24450    0.43690    1.000
    C4       C        0.78980    0.28710    0.42750    1.000
    C5       C        0.78540    0.31460    0.35380    1.000
    H1       H        0.82110    0.30560    0.31070    1.000
    C6       C        0.73060    0.35340    0.34570    1.000
    H2       H        0.72640    0.37010    0.29580    1.000
    C7       C        0.67920    0.36980    0.41000    1.000
    H3       H        0.64310    0.39790    0.40320    1.000
    C8       C        0.68130    0.34540    0.48170    1.000
    H4       H        0.64640    0.35670    0.52410    1.000
    C9       C        0.73600    0.30290    0.49330    1.000
    C10      C        0.73870    0.27590    0.56580    1.000
    C11      C        0.79090    0.23370    0.57470    1.000
    C12      C        0.79430    0.20550    0.64820    1.000
    H5       H        0.76140    0.21600    0.69240    1.000
    C13      C        0.84380    0.16390    0.65460    1.000
    H6       H        0.84470    0.14590    0.70340    1.000
    C14      C        0.89440    0.14690    0.59000    1.000
    H7       H        0.92750    0.11740    0.59540    1.000
    C15      C        0.89520    0.17290    0.52020    1.000
    H8       H        0.93050    0.16180    0.47810    1.000
    C16      C        0.84350    0.21710    0.50890    1.000
    O5       O        0.44230    0.24311    0.67470    1.000
    O6       O        0.38710    0.31998    0.65130    1.000
    C17      C        0.39690    0.27410    0.63780    1.000
    O7       O        0.15060    0.23879    0.32830    1.000
    O8       O        0.19170    0.15870    0.34990    1.000
    C18      C        0.19130    0.20510    0.36400    1.000
    C19      C        0.24460    0.22250    0.43560    1.000
    C20      C        0.20580    0.23300    0.50810    1.000
    C21      C        0.11430    0.23040    0.51910    1.000
    H9       H        0.07890    0.22310    0.47480    1.000
    C22      C        0.07840    0.23830    0.59260    1.000
    H10      H        0.01860    0.23600    0.59840    1.000
    C23      C        0.13020    0.24990    0.66040    1.000
    H11      H        0.10460    0.25470    0.71100    1.000
    C24      C        0.21630    0.25400    0.65270    1.000
    H12      H        0.24990    0.26130    0.69830    1.000
    C25      C        0.25710    0.24750    0.57650    1.000
    C26      C        0.34490    0.25410    0.56620    1.000
    C27      C        0.38410    0.24560    0.49290    1.000
    C28      C        0.47420    0.25310    0.48060    1.000
    H13      H        0.50900    0.26310    0.52400    1.000
    C29      C        0.50930    0.24600    0.40840    1.000
    H14      H        0.56830    0.25170    0.40150    1.000
    C30      C        0.45930    0.23000    0.34180    1.000
    H15      H        0.48500    0.22520    0.29130    1.000
    C31      C        0.37450    0.22150    0.35110    1.000
    H16      H        0.34220    0.21030    0.30670    1.000
    C32      C        0.33310    0.22890    0.42550    1.000
    O9       O        0.07850    0.07119    0.32490    1.000
    O10      O        0.94110    0.09169    0.34810    1.000
    C33      C        0.00940    0.06820    0.36290    1.000
    C34      C        0.12660    0.10460    0.58820    1.000
    H17      H        0.15730    0.13510    0.59350    1.000
    C35      C        0.09310    0.09140    0.51580    1.000
    H18      H        0.10150    0.11280    0.47130    1.000
    C36      C        0.04580    0.04630    0.50590    1.000
    C37      C        0.00640    0.03250    0.43400    1.000
    C38      C        0.96350    0.98690    0.42620    1.000
    C39      C        0.92760    0.97150    0.35090    1.000
    H19      H        0.93400    0.99220    0.30540    1.000
    C40      C        0.88440    0.92720    0.34440    1.000
    H20      H        0.86150    0.91750    0.29430    1.000
    O11      O        0.94840    0.07994    0.17020    1.000
    O12      O        0.08900    0.08867    0.14750    1.000
    C41      C        0.01610    0.07118    0.13250    1.000
    C42      C        0.97590    0.05150    0.98990    1.000
    C43      C        0.00900    0.03500    0.06340    1.000
    C44      C        0.03270    0.98460    0.07600    1.000
    C45      C        0.06530    0.96680    0.15010    1.000
    H21      H        0.07230    0.98960    0.19290    1.000
    C46      C        0.08650    0.91850    0.16070    1.000
    H22      H        0.10620    0.90770    0.21140    1.000
    C47      C        0.08010    0.88260    0.09700    1.000
    H23      H        0.09750    0.84900    0.10500    1.000
    C48      C        0.04860    0.89750    0.02470    1.000
    H24      H        0.04280    0.87350    0.98320    1.000
    N1       N        0.57100    0.17673    0.75260    1.000
    C49      C        0.58170    0.15090    0.68580    1.000
    H25      H        0.56760    0.16690    0.63700    1.000
    C50      C        0.61210    0.10210    0.68250    1.000
    H26      H        0.61800    0.08570    0.63260    1.000
    C51      C        0.63360    0.07750    0.75200    1.000
    C52      C        0.62170    0.10380    0.82190    1.000
    H27      H        0.63600    0.08880    0.87140    1.000
    C53      C        0.58880    0.15260    0.82020    1.000
    H28      H        0.57870    0.16920    0.86930    1.000
    C54      C        0.67300    0.02600    0.75090    1.000
    C55      C        0.69820    0.00200    0.67990    1.000
    H29      H        0.68650    0.01710    0.62990    1.000
    C56      C        0.73970    0.95660    0.68310    1.000
    H30      H        0.75400    0.94080    0.63430    1.000
    N2       N        0.76100    0.93346    0.75130    1.000
    C57      C        0.73460    0.95460    0.81850    1.000
    H31      H        0.74680    0.93800    0.86720    1.000
    C58      C        0.69010    0.99960    0.82140    1.000
    H32      H        0.67130    0.01240    0.87110    1.000
    O13      O        0.53318    0.33213    0.75658    1.000
    Co4      Co       0.08418    0.86329    0.75048    1.000
    Co5      Co       0.95489    0.75655    0.74809    1.000
    Co6      Co       0.36117    0.62329    0.24988    1.000
    O14      O        0.88010    0.76428    0.85030    1.000
    O15      O        0.79360    0.83095    0.82740    1.000
    C59      C        0.81690    0.79190    0.86470    1.000
    O16      O        0.63440    0.68929    0.17080    1.000
    C60      C        0.60420    0.72660    0.13360    1.000
    O17      O        0.53640    0.74993    0.14860    1.000
    C61      C        0.65640    0.74450    0.06310    1.000
    C62      C        0.71020    0.78710    0.07250    1.000
    C63      C        0.71460    0.81460    0.14620    1.000
    H33      H        0.67890    0.80560    0.18930    1.000
    C64      C        0.76940    0.85340    0.15430    1.000
    H34      H        0.77360    0.87010    0.20420    1.000
    C65      C        0.82080    0.86980    0.09000    1.000
    H35      H        0.85690    0.89790    0.09680    1.000
    C66      C        0.81870    0.84540    0.01830    1.000
    H36      H        0.85360    0.85670    0.97590    1.000
    C67      C        0.76400    0.80290    0.00670    1.000
    C68      C        0.76130    0.77590    0.93420    1.000
    C69      C        0.70910    0.73370    0.92530    1.000
    C70      C        0.70570    0.70550    0.85180    1.000
    H37      H        0.73860    0.71600    0.80760    1.000
    C71      C        0.65620    0.66390    0.84540    1.000
    H38      H        0.65530    0.64590    0.79660    1.000
    C72      C        0.60560    0.64690    0.91000    1.000
    H39      H        0.57250    0.61740    0.90460    1.000
    C73      C        0.60480    0.67290    0.97980    1.000
    H40      H        0.56950    0.66180    0.02190    1.000
    C74      C        0.65650    0.71710    0.99110    1.000
    O18      O        0.05770    0.74311    0.82530    1.000
    O19      O        0.11290    0.81998    0.84870    1.000
    C75      C        0.10310    0.77410    0.86220    1.000
    O20      O        0.34940    0.73879    0.17170    1.000
    O21      O        0.30830    0.65870    0.15010    1.000
    C76      C        0.30870    0.70510    0.13600    1.000
    C77      C        0.25540    0.72250    0.06440    1.000
    C78      C        0.29420    0.73300    0.99190    1.000
    C79      C        0.38570    0.73040    0.98090    1.000
    H41      H        0.42110    0.72310    0.02520    1.000
    C80      C        0.42160    0.73830    0.90740    1.000
    H42      H        0.48140    0.73600    0.90160    1.000
    C81      C        0.36980    0.74990    0.83960    1.000
    H43      H        0.39540    0.75470    0.78900    1.000
    C82      C        0.28370    0.75400    0.84730    1.000
    H44      H        0.25010    0.76130    0.80170    1.000
    C83      C        0.24290    0.74750    0.92350    1.000
    C84      C        0.15510    0.75410    0.93380    1.000
    C85      C        0.11590    0.74560    0.00710    1.000
    C86      C        0.02580    0.75310    0.01940    1.000
    H45      H        0.99100    0.76310    0.97600    1.000
    C87      C        0.99070    0.74600    0.09160    1.000
    H46      H        0.93170    0.75170    0.09850    1.000
    C88      C        0.04070    0.73000    0.15820    1.000
    H47      H        0.01500    0.72520    0.20870    1.000
    C89      C        0.12550    0.72150    0.14890    1.000
    H48      H        0.15780    0.71030    0.19330    1.000
    C90      C        0.16690    0.72890    0.07450    1.000
    O22      O        0.42150    0.57119    0.17510    1.000
    O23      O        0.55890    0.59169    0.15190    1.000
    C91      C        0.49060    0.56820    0.13710    1.000
    C92      C        0.37340    0.60460    0.91180    1.000
    H49      H        0.34270    0.63510    0.90650    1.000
    C93      C        0.40690    0.59140    0.98420    1.000
    H50      H        0.39850    0.61280    0.02870    1.000
    C94      C        0.45420    0.54630    0.99410    1.000
    C95      C        0.49360    0.53250    0.06600    1.000
    C96      C        0.53650    0.48690    0.07380    1.000
    C97      C        0.57240    0.47150    0.14910    1.000
    H51      H        0.56600    0.49220    0.19460    1.000
    C98      C        0.61560    0.42720    0.15560    1.000
    H52      H        0.63850    0.41750    0.20570    1.000
    O24      O        0.55160    0.57994    0.32980    1.000
    O25      O        0.41100    0.58867    0.35250    1.000
    C99      C        0.48390    0.57118    0.36750    1.000
    C100     C        0.52410    0.55150    0.51010    1.000
    C101     C        0.49100    0.53500    0.43660    1.000
    C102     C        0.46730    0.48460    0.42400    1.000
    C103     C        0.43470    0.46680    0.34990    1.000
    H53      H        0.42770    0.48960    0.30710    1.000
    C104     C        0.41350    0.41850    0.33930    1.000
    H54      H        0.39380    0.40770    0.28860    1.000
    C105     C        0.41990    0.38260    0.40300    1.000
    H55      H        0.40250    0.34900    0.39500    1.000
    C106     C        0.45140    0.39750    0.47530    1.000
    H56      H        0.45720    0.37350    0.51680    1.000
    N3       N        0.92900    0.67673    0.74740    1.000
    C107     C        0.91830    0.65090    0.81420    1.000
    H57      H        0.93240    0.66690    0.86300    1.000
    C108     C        0.88790    0.60210    0.81750    1.000
    H58      H        0.88200    0.58570    0.86740    1.000
    C109     C        0.86640    0.57750    0.74800    1.000
    C110     C        0.87830    0.60380    0.67810    1.000
    H59      H        0.86400    0.58880    0.62860    1.000
    C111     C        0.91120    0.65260    0.67980    1.000
    H60      H        0.92130    0.66920    0.63070    1.000
    C112     C        0.82700    0.52600    0.74910    1.000
    C113     C        0.80180    0.50200    0.82010    1.000
    H61      H        0.81350    0.51710    0.87010    1.000
    C114     C        0.76030    0.45660    0.81690    1.000
    H62      H        0.74600    0.44080    0.86570    1.000
    N4       N        0.73900    0.43346    0.74870    1.000
    C115     C        0.76540    0.45460    0.68150    1.000
    H63      H        0.75320    0.43800    0.63280    1.000
    C116     C        0.80990    0.49960    0.67860    1.000
    H64      H        0.82870    0.51240    0.62890    1.000
    O26      O        0.96682    0.83213    0.74342    1.000
    Co7      Co       0.58418    0.63671    0.25048    1.000
    Co8      Co       0.45489    0.74345    0.24809    1.000
    Co9      Co       0.86117    0.87671    0.74988    1.000
    O27      O        0.38010    0.73572    0.35030    1.000
    O28      O        0.29360    0.66905    0.32740    1.000
    C117     C        0.31690    0.70810    0.36470    1.000
    O29      O        0.13440    0.81071    0.67080    1.000
    C118     C        0.10420    0.77340    0.63360    1.000
    O30      O        0.03640    0.75007    0.64860    1.000
    C119     C        0.15640    0.75550    0.56310    1.000
    C120     C        0.21020    0.71290    0.57250    1.000
    C121     C        0.21460    0.68540    0.64620    1.000
    H65      H        0.17890    0.69440    0.68930    1.000
    C122     C        0.26940    0.64660    0.65430    1.000
    H66      H        0.27360    0.62990    0.70420    1.000
    C123     C        0.32080    0.63020    0.59000    1.000
    H67      H        0.35690    0.60210    0.59680    1.000
    C124     C        0.31870    0.65460    0.51830    1.000
    H68      H        0.35360    0.64330    0.47590    1.000
    C125     C        0.26400    0.69710    0.50670    1.000
    C126     C        0.26130    0.72410    0.43420    1.000
    C127     C        0.20910    0.76630    0.42530    1.000
    C128     C        0.20570    0.79450    0.35180    1.000
    H69      H        0.23860    0.78400    0.30760    1.000
    C129     C        0.15620    0.83610    0.34540    1.000
    H70      H        0.15530    0.85410    0.29660    1.000
    C130     C        0.10560    0.85310    0.41000    1.000
    H71      H        0.07250    0.88260    0.40460    1.000
    C131     C        0.10480    0.82710    0.47980    1.000
    H72      H        0.06950    0.83820    0.52190    1.000
    C132     C        0.15650    0.78290    0.49110    1.000
    O31      O        0.55770    0.75689    0.32530    1.000
    O32      O        0.61290    0.68002    0.34870    1.000
    C133     C        0.60310    0.72590    0.36220    1.000
    O33      O        0.84940    0.76121    0.67170    1.000
    O34      O        0.80830    0.84130    0.65010    1.000
    C134     C        0.80870    0.79490    0.63600    1.000
    C135     C        0.75540    0.77750    0.56440    1.000
    C136     C        0.79420    0.76700    0.49190    1.000
    C137     C        0.88570    0.76960    0.48090    1.000
    H73      H        0.92110    0.77690    0.52520    1.000
    C138     C        0.92160    0.76170    0.40740    1.000
    H74      H        0.98140    0.76400    0.40160    1.000
    C139     C        0.86980    0.75010    0.33960    1.000
    H75      H        0.89540    0.74530    0.28900    1.000
    C140     C        0.78370    0.74600    0.34730    1.000
    H76      H        0.75010    0.73870    0.30170    1.000
    C141     C        0.74290    0.75250    0.42350    1.000
    C142     C        0.65510    0.74590    0.43380    1.000
    C143     C        0.61590    0.75440    0.50710    1.000
    C144     C        0.52580    0.74690    0.51940    1.000
    H77      H        0.49100    0.73690    0.47600    1.000
    C145     C        0.49070    0.75400    0.59160    1.000
    H78      H        0.43170    0.74830    0.59850    1.000
    C146     C        0.54070    0.77000    0.65820    1.000
    H79      H        0.51500    0.77480    0.70870    1.000
    C147     C        0.62550    0.77850    0.64890    1.000
    H80      H        0.65780    0.78970    0.69330    1.000
    C148     C        0.66690    0.77110    0.57450    1.000
    O35      O        0.92150    0.92881    0.67510    1.000
    O36      O        0.05890    0.90831    0.65190    1.000
    C149     C        0.99060    0.93180    0.63710    1.000
    C150     C        0.87340    0.89540    0.41180    1.000
    H81      H        0.84270    0.86490    0.40650    1.000
    C151     C        0.90690    0.90860    0.48420    1.000
    H82      H        0.89850    0.88720    0.52870    1.000
    C152     C        0.95420    0.95370    0.49410    1.000
    C153     C        0.99360    0.96750    0.56600    1.000
    C154     C        0.03650    0.01310    0.57380    1.000
    C155     C        0.07240    0.02850    0.64910    1.000
    H83      H        0.06600    0.00780    0.69460    1.000
    C156     C        0.11560    0.07280    0.65560    1.000
    H84      H        0.13850    0.08250    0.70570    1.000
    O37      O        0.05160    0.92006    0.82980    1.000
    O38      O        0.91100    0.91133    0.85250    1.000
    C157     C        0.98390    0.92882    0.86750    1.000
    C158     C        0.02410    0.94850    0.01010    1.000
    C159     C        0.99100    0.96500    0.93660    1.000
    C160     C        0.96730    0.01540    0.92400    1.000
    C161     C        0.93470    0.03320    0.84990    1.000
    H85      H        0.92770    0.01040    0.80710    1.000
    C162     C        0.91350    0.08150    0.83930    1.000
    H86      H        0.89380    0.09230    0.78860    1.000
    C163     C        0.91990    0.11740    0.90300    1.000
    H87      H        0.90250    0.15100    0.89500    1.000
    C164     C        0.95140    0.10250    0.97530    1.000
    H88      H        0.95720    0.12650    0.01680    1.000
    N5       N        0.42900    0.82327    0.24740    1.000
    C165     C        0.41830    0.84910    0.31420    1.000
    H89      H        0.43240    0.83310    0.36300    1.000
    C166     C        0.38790    0.89790    0.31750    1.000
    H90      H        0.38200    0.91430    0.36740    1.000
    C167     C        0.36640    0.92250    0.24800    1.000
    C168     C        0.37830    0.89620    0.17810    1.000
    H91      H        0.36400    0.91120    0.12860    1.000
    C169     C        0.41120    0.84740    0.17980    1.000
    H92      H        0.42130    0.83080    0.13070    1.000
    C170     C        0.32700    0.97400    0.24910    1.000
    C171     C        0.30180    0.99800    0.32010    1.000
    H93      H        0.31350    0.98290    0.37010    1.000
    C172     C        0.26030    0.04340    0.31690    1.000
    H94      H        0.24600    0.05920    0.36570    1.000
    N6       N        0.23900    0.06654    0.24870    1.000
    C173     C        0.26540    0.04540    0.18150    1.000
    H95      H        0.25320    0.06200    0.13280    1.000
    C174     C        0.30990    0.00040    0.17860    1.000
    H96      H        0.32870    0.98760    0.12890    1.000
    O39      O        0.46682    0.66787    0.24342    1.000
    Co10     Co       0.91582    0.13671    0.24952    1.000
    Co11     Co       0.04511    0.24345    0.25191    1.000
    Co12     Co       0.63883    0.37671    0.75012    1.000
    O40      O        0.11990    0.23572    0.14970    1.000
    O41      O        0.20640    0.16905    0.17260    1.000
    C175     C        0.18310    0.20810    0.13530    1.000
    O42      O        0.36560    0.31071    0.82920    1.000
    C176     C        0.39580    0.27340    0.86640    1.000
    O43      O        0.46360    0.25007    0.85140    1.000
    C177     C        0.34360    0.25550    0.93690    1.000
    C178     C        0.28980    0.21290    0.92750    1.000
    C179     C        0.28540    0.18540    0.85380    1.000
    H97      H        0.32110    0.19440    0.81070    1.000
    C180     C        0.23060    0.14660    0.84570    1.000
    H98      H        0.22640    0.12990    0.79580    1.000
    C181     C        0.17920    0.13020    0.91000    1.000
    H99      H        0.14310    0.10210    0.90320    1.000
    C182     C        0.18130    0.15460    0.98170    1.000
    H100     H        0.14640    0.14330    0.02410    1.000
    C183     C        0.23600    0.19710    0.99330    1.000
    C184     C        0.23870    0.22410    0.06580    1.000
    C185     C        0.29090    0.26630    0.07470    1.000
    C186     C        0.29430    0.29450    0.14820    1.000
    H101     H        0.26140    0.28400    0.19240    1.000
    C187     C        0.34380    0.33610    0.15460    1.000
    H102     H        0.34470    0.35410    0.20340    1.000
    C188     C        0.39440    0.35310    0.09000    1.000
    H103     H        0.42750    0.38260    0.09540    1.000
    C189     C        0.39520    0.32710    0.02020    1.000
    H104     H        0.43050    0.33820    0.97810    1.000
    C190     C        0.34350    0.28290    0.00890    1.000
    O44      O        0.94230    0.25689    0.17470    1.000
    O45      O        0.88710    0.18002    0.15130    1.000
    C191     C        0.89690    0.22590    0.13780    1.000
    O46      O        0.65060    0.26121    0.82830    1.000
    O47      O        0.69170    0.34130    0.84990    1.000
    C192     C        0.69130    0.29490    0.86400    1.000
    C193     C        0.74460    0.27750    0.93560    1.000
    C194     C        0.70580    0.26700    0.00810    1.000
    C195     C        0.61430    0.26960    0.01910    1.000
    H105     H        0.57890    0.27690    0.97480    1.000
    C196     C        0.57840    0.26170    0.09260    1.000
    H106     H        0.51860    0.26400    0.09840    1.000
    C197     C        0.63020    0.25010    0.16040    1.000
    H107     H        0.60460    0.24530    0.21100    1.000
    C198     C        0.71630    0.24600    0.15270    1.000
    H108     H        0.74990    0.23870    0.19830    1.000
    C199     C        0.75710    0.25250    0.07650    1.000
    C200     C        0.84490    0.24590    0.06620    1.000
    C201     C        0.88410    0.25440    0.99290    1.000
    C202     C        0.97420    0.24690    0.98060    1.000
    H109     H        0.00900    0.23690    0.02400    1.000
    C203     C        0.00930    0.25400    0.90840    1.000
    H110     H        0.06830    0.24830    0.90150    1.000
    C204     C        0.95930    0.27000    0.84180    1.000
    H111     H        0.98500    0.27480    0.79130    1.000
    C205     C        0.87450    0.27850    0.85110    1.000
    H112     H        0.84220    0.28970    0.80670    1.000
    C206     C        0.83310    0.27110    0.92550    1.000
    O48      O        0.57850    0.42881    0.82490    1.000
    O49      O        0.44110    0.40831    0.84810    1.000
    C207     C        0.50940    0.43180    0.86290    1.000
    C208     C        0.62660    0.39540    0.08820    1.000
    H113     H        0.65730    0.36490    0.09350    1.000
    C209     C        0.59310    0.40860    0.01580    1.000
    H114     H        0.60150    0.38720    0.97130    1.000
    C210     C        0.54580    0.45370    0.00590    1.000
    C211     C        0.50640    0.46750    0.93400    1.000
    C212     C        0.46350    0.51310    0.92620    1.000
    C213     C        0.42760    0.52850    0.85090    1.000
    H115     H        0.43400    0.50780    0.80540    1.000
    C214     C        0.38440    0.57280    0.84440    1.000
    H116     H        0.36150    0.58250    0.79430    1.000
    O50      O        0.44840    0.42006    0.67020    1.000
    O51      O        0.58900    0.41133    0.64750    1.000
    C215     C        0.51610    0.42882    0.63250    1.000
    C216     C        0.47590    0.44850    0.48990    1.000
    C217     C        0.50900    0.46500    0.56340    1.000
    C218     C        0.53270    0.51540    0.57600    1.000
    C219     C        0.56530    0.53320    0.65010    1.000
    H117     H        0.57230    0.51040    0.69290    1.000
    C220     C        0.58650    0.58150    0.66070    1.000
    H118     H        0.60620    0.59230    0.71140    1.000
    C221     C        0.58010    0.61740    0.59700    1.000
    H119     H        0.59750    0.65100    0.60500    1.000
    C222     C        0.54860    0.60250    0.52470    1.000
    H120     H        0.54280    0.62650    0.48320    1.000
    N7       N        0.07100    0.32327    0.25260    1.000
    C223     C        0.08170    0.34910    0.18580    1.000
    H121     H        0.06760    0.33310    0.13700    1.000
    C224     C        0.11210    0.39790    0.18250    1.000
    H122     H        0.11800    0.41430    0.13260    1.000
    C225     C        0.13360    0.42250    0.25200    1.000
    C226     C        0.12170    0.39620    0.32190    1.000
    H123     H        0.13600    0.41120    0.37140    1.000
    C227     C        0.08880    0.34740    0.32020    1.000
    H124     H        0.07870    0.33080    0.36930    1.000
    C228     C        0.17300    0.47400    0.25090    1.000
    C229     C        0.19820    0.49800    0.17990    1.000
    H125     H        0.18650    0.48290    0.12990    1.000
    C230     C        0.23970    0.54340    0.18310    1.000
    H126     H        0.25400    0.55920    0.13430    1.000
    N8       N        0.26100    0.56654    0.25130    1.000
    C231     C        0.23460    0.54540    0.31850    1.000
    H127     H        0.24680    0.56200    0.36720    1.000
    C232     C        0.19010    0.50040    0.32140    1.000
    H128     H        0.17130    0.48760    0.37110    1.000
    O52      O        0.03318    0.16787    0.25658    1.000
