# CIF file generated by openbabel 3.1.0, see https://openbabel.org
data_I
_chemical_name_common 'UGUHAG_clean'
_cell_length_a 9.1432
_cell_length_b 13.692
_cell_length_c 22.304
_cell_angle_alpha 90
_cell_angle_beta 90
_cell_angle_gamma 90.43
_space_group_name_H-M_alt 'P 1'
_space_group_name_Hall 'P 1'
loop_
    _symmetry_equiv_pos_as_xyz
    x,y,z
loop_
    _atom_site_label
    _atom_site_type_symbol
    _atom_site_fract_x
    _atom_site_fract_y
    _atom_site_fract_z
    _atom_site_occupancy
    Lu1      Lu       0.96318    0.97952    0.32900    1.000
    Lu2      Lu       0.46736    0.22923    0.42466    1.000
    Lu3      Lu       0.03682    0.52048    0.82900    1.000
    Lu4      Lu       0.53264    0.27077    0.92466    1.000
    Lu5      Lu       0.03682    0.02048    0.67100    1.000
    Lu6      Lu       0.53264    0.77077    0.57534    1.000
    Lu7      Lu       0.96318    0.47952    0.17100    1.000
    Lu8      Lu       0.46736    0.72923    0.07534    1.000
    C1       C        0.75810    0.07420    0.22460    1.000
    C2       C        0.87140    0.15630    0.23320    1.000
    C3       C        0.87630    0.24780    0.20280    1.000
    C4       C        0.80670    0.27540    0.14160    1.000
    C5       C        0.10160    0.40650    0.29520    1.000
    C6       C        0.04460    0.30880    0.27450    1.000
    C7       C        0.05280    0.21560    0.29860    1.000
    C8       C        0.16590    0.17750    0.34390    1.000
    C9       C        0.13690    0.84890    0.42670    1.000
    C10      C        0.07540    0.92970    0.46740    1.000
    C11      C        0.10520    0.94640    0.53110    1.000
    C12      C        0.22260    0.90550    0.56950    1.000
    C13      C        0.24190    0.42580    0.72460    1.000
    C14      C        0.12860    0.34370    0.73320    1.000
    C15      C        0.12370    0.25220    0.70280    1.000
    C16      C        0.19330    0.22460    0.64160    1.000
    C17      C        0.89840    0.09350    0.79520    1.000
    C18      C        0.95540    0.19120    0.77450    1.000
    C19      C        0.94720    0.28440    0.79860    1.000
    C20      C        0.83410    0.32250    0.84390    1.000
    C21      C        0.86310    0.65110    0.92670    1.000
    C22      C        0.92460    0.57030    0.96740    1.000
    C23      C        0.89480    0.55360    0.03110    1.000
    C24      C        0.77740    0.59450    0.06950    1.000
    C25      C        0.24190    0.92580    0.77540    1.000
    C26      C        0.12860    0.84370    0.76680    1.000
    C27      C        0.12370    0.75220    0.79720    1.000
    C28      C        0.19330    0.72460    0.85840    1.000
    C29      C        0.89840    0.59350    0.70480    1.000
    C30      C        0.95540    0.69120    0.72550    1.000
    C31      C        0.94720    0.78440    0.70140    1.000
    C32      C        0.83410    0.82250    0.65610    1.000
    C33      C        0.86310    0.15110    0.57330    1.000
    C34      C        0.92460    0.07030    0.53260    1.000
    C35      C        0.89480    0.05360    0.46890    1.000
    C36      C        0.77740    0.09450    0.43050    1.000
    C37      C        0.75810    0.57420    0.27540    1.000
    C38      C        0.87140    0.65630    0.26680    1.000
    C39      C        0.87630    0.74780    0.29720    1.000
    C40      C        0.80670    0.77540    0.35840    1.000
    C41      C        0.10160    0.90650    0.20480    1.000
    C42      C        0.04460    0.80880    0.22550    1.000
    C43      C        0.05280    0.71560    0.20140    1.000
    C44      C        0.16590    0.67750    0.15610    1.000
    C45      C        0.13690    0.34890    0.07330    1.000
    C46      C        0.07540    0.42970    0.03260    1.000
    C47      C        0.10520    0.44640    0.96890    1.000
    C48      C        0.22260    0.40550    0.93050    1.000
    N1       N        0.96520    0.14290    0.27830    1.000
    N2       N        0.95520    0.32080    0.22440    1.000
    N3       N        0.97180    0.98520    0.44110    1.000
    N4       N        0.03480    0.35710    0.77830    1.000
    N5       N        0.04480    0.17920    0.72440    1.000
    N6       N        0.02820    0.51480    0.94110    1.000
    N7       N        0.03480    0.85710    0.72170    1.000
    N8       N        0.04480    0.67920    0.77560    1.000
    N9       N        0.02820    0.01480    0.55890    1.000
    N10      N        0.96520    0.64290    0.22170    1.000
    N11      N        0.95520    0.82080    0.27560    1.000
    N12      N        0.97180    0.48520    0.05890    1.000
    O1       O        0.79160    0.99660    0.25520    1.000
    O2       O        0.64900    0.08680    0.19430    1.000
    O3       O        0.77700    0.20850    0.10550    1.000
    O4       O        0.79550    0.36740    0.13420    1.000
    O5       O        0.12240    0.46820    0.25350    1.000
    O6       O        0.12900    0.41720    0.34960    1.000
    O7       O        0.26400    0.23200    0.36070    1.000
    O8       O        0.14590    0.09050    0.36230    1.000
    O9       O        0.13700    0.87420    0.37230    1.000
    O10      O        0.16970    0.76970    0.44870    1.000
    O11      O        0.32770    0.86010    0.54460    1.000
    O12      O        0.20710    0.91910    0.62570    1.000
    O13      O        0.20840    0.50340    0.75520    1.000
    O14      O        0.35100    0.41320    0.69430    1.000
    O15      O        0.22300    0.29150    0.60550    1.000
    O16      O        0.20450    0.13260    0.63420    1.000
    O17      O        0.87760    0.03180    0.75350    1.000
    O18      O        0.87100    0.08280    0.84960    1.000
    O19      O        0.73600    0.26800    0.86070    1.000
    O20      O        0.85410    0.40950    0.86230    1.000
    O21      O        0.86300    0.62580    0.87230    1.000
    O22      O        0.83030    0.73030    0.94870    1.000
    O23      O        0.67230    0.63990    0.04460    1.000
    O24      O        0.79290    0.58090    0.12570    1.000
    O25      O        0.20840    0.00340    0.74480    1.000
    O26      O        0.35100    0.91320    0.80570    1.000
    O27      O        0.22300    0.79150    0.89450    1.000
    O28      O        0.20450    0.63260    0.86580    1.000
    O29      O        0.87760    0.53180    0.74650    1.000
    O30      O        0.87100    0.58280    0.65040    1.000
    O31      O        0.73600    0.76800    0.63930    1.000
    O32      O        0.85410    0.90950    0.63770    1.000
    O33      O        0.86300    0.12580    0.62770    1.000
    O34      O        0.83030    0.23030    0.55130    1.000
    O35      O        0.67230    0.13990    0.45540    1.000
    O36      O        0.79290    0.08090    0.37430    1.000
    O37      O        0.79160    0.49660    0.24480    1.000
    O38      O        0.64900    0.58680    0.30570    1.000
    O39      O        0.77700    0.70850    0.39450    1.000
    O40      O        0.79550    0.86740    0.36580    1.000
    O41      O        0.12240    0.96820    0.24650    1.000
    O42      O        0.12900    0.91720    0.15040    1.000
    O43      O        0.26400    0.73200    0.13930    1.000
    O44      O        0.14590    0.59050    0.13770    1.000
    O45      O        0.13700    0.37420    0.12770    1.000
    O46      O        0.16970    0.26970    0.05130    1.000
    O47      O        0.32770    0.36010    0.95540    1.000
    O48      O        0.20710    0.41910    0.87430    1.000
