# CIF file generated by openbabel 3.1.0, see https://openbabel.org
data_I
_chemical_name_common 'OTAXOX_clean'
_cell_length_a 9.9638
_cell_length_b 18.082
_cell_length_c 18.45
_cell_angle_alpha 90
_cell_angle_beta 90
_cell_angle_gamma 90
_space_group_name_H-M_alt 'P 1'
_space_group_name_Hall 'P 1'
loop_
    _symmetry_equiv_pos_as_xyz
    x,y,z
loop_
    _atom_site_label
    _atom_site_type_symbol
    _atom_site_fract_x
    _atom_site_fract_y
    _atom_site_fract_z
    _atom_site_occupancy
    Mg1      Mg       0.42491    0.94144    0.82153    1.000
    Mg2      Mg       0.61579    0.03518    0.71717    1.000
    Mg3      Mg       0.07509    0.44144    0.67847    1.000
    Mg4      Mg       0.88421    0.53518    0.78283    1.000
    Mg5      Mg       0.57509    0.55856    0.82153    1.000
    Mg6      Mg       0.38421    0.46482    0.71717    1.000
    Mg7      Mg       0.92491    0.05856    0.67847    1.000
    Mg8      Mg       0.11579    0.96482    0.78283    1.000
    Mg9      Mg       0.57509    0.05856    0.17847    1.000
    Mg10     Mg       0.38421    0.96482    0.28283    1.000
    Mg11     Mg       0.92491    0.55856    0.32153    1.000
    Mg12     Mg       0.11579    0.46482    0.21717    1.000
    Mg13     Mg       0.42491    0.44144    0.17847    1.000
    Mg14     Mg       0.61579    0.53518    0.28283    1.000
    Mg15     Mg       0.07509    0.94144    0.32153    1.000
    Mg16     Mg       0.88421    0.03518    0.21717    1.000
    Mg17     Mg       0.50000    0.00000    0.00000    1.000
    Mg18     Mg       0.00000    0.50000    0.50000    1.000
    Mg19     Mg       0.50000    0.50000    0.00000    1.000
    Mg20     Mg       0.00000    0.00000    0.50000    1.000
    Mg21     Mg       0.50000    0.75000    0.81559    1.000
    Mg22     Mg       0.00000    0.25000    0.68441    1.000
    Mg23     Mg       0.50000    0.25000    0.18441    1.000
    Mg24     Mg       0.00000    0.75000    0.31559    1.000
    H1       H        0.26730    0.00440    0.63830    1.000
    H2       H        0.12830    0.99300    0.94770    1.000
    H3       H        0.20960    0.76460    0.81740    1.000
    H4       H        0.69680    0.87420    0.68520    1.000
    H5       H        0.53850    0.14400    0.84860    1.000
    H6       H        0.65370    0.86520    0.97030    1.000
    H7       H        0.23270    0.50440    0.86170    1.000
    H8       H        0.37170    0.49300    0.55230    1.000
    H9       H        0.29040    0.26460    0.68260    1.000
    H10      H        0.80320    0.37420    0.81480    1.000
    H11      H        0.96150    0.64400    0.65140    1.000
    H12      H        0.84630    0.36520    0.52970    1.000
    H13      H        0.73270    0.49560    0.63830    1.000
    H14      H        0.87170    0.50700    0.94770    1.000
    H15      H        0.79040    0.73540    0.81740    1.000
    H16      H        0.30320    0.62580    0.68520    1.000
    H17      H        0.46150    0.35600    0.84860    1.000
    H18      H        0.34630    0.63480    0.97030    1.000
    H19      H        0.76730    0.99560    0.86170    1.000
    H20      H        0.62830    0.00700    0.55230    1.000
    H21      H        0.70960    0.23540    0.68260    1.000
    H22      H        0.19680    0.12580    0.81480    1.000
    H23      H        0.03850    0.85600    0.65140    1.000
    H24      H        0.15370    0.13480    0.52970    1.000
    H25      H        0.73270    0.99560    0.36170    1.000
    H26      H        0.87170    0.00700    0.05230    1.000
    H27      H        0.79040    0.23540    0.18260    1.000
    H28      H        0.30320    0.12580    0.31480    1.000
    H29      H        0.46150    0.85600    0.15140    1.000
    H30      H        0.34630    0.13480    0.02970    1.000
    H31      H        0.76730    0.49560    0.13830    1.000
    H32      H        0.62830    0.50700    0.44770    1.000
    H33      H        0.70960    0.73540    0.31740    1.000
    H34      H        0.19680    0.62580    0.18520    1.000
    H35      H        0.03850    0.35600    0.34860    1.000
    H36      H        0.15370    0.63480    0.47030    1.000
    H37      H        0.26730    0.50440    0.36170    1.000
    H38      H        0.12830    0.49300    0.05230    1.000
    H39      H        0.20960    0.26460    0.18260    1.000
    H40      H        0.69680    0.37420    0.31480    1.000
    H41      H        0.53850    0.64400    0.15140    1.000
    H42      H        0.65370    0.36520    0.02970    1.000
    H43      H        0.23270    0.00440    0.13830    1.000
    H44      H        0.37170    0.99300    0.44770    1.000
    H45      H        0.29040    0.76460    0.31740    1.000
    H46      H        0.80320    0.87420    0.18520    1.000
    H47      H        0.96150    0.14400    0.34860    1.000
    H48      H        0.84630    0.86520    0.47030    1.000
    C1       C        0.33430    0.00110    0.67330    1.000
    C2       C        0.21910    0.98830    0.93680    1.000
    C3       C        0.22810    0.81470    0.81160    1.000
    C4       C        0.63200    0.86700    0.72080    1.000
    C5       C        0.51940    0.09590    0.86310    1.000
    C6       C        0.59980    0.86390    0.92920    1.000
    C7       C        0.16570    0.50110    0.82670    1.000
    C8       C        0.28090    0.48830    0.56320    1.000
    C9       C        0.27190    0.31470    0.68840    1.000
    C10      C        0.86800    0.36700    0.77920    1.000
    C11      C        0.98060    0.59590    0.63690    1.000
    C12      C        0.90020    0.36390    0.57080    1.000
    C13      C        0.66570    0.49890    0.67330    1.000
    C14      C        0.78090    0.51170    0.93680    1.000
    C15      C        0.77190    0.68530    0.81160    1.000
    C16      C        0.36800    0.63300    0.72080    1.000
    C17      C        0.48060    0.40410    0.86310    1.000
    C18      C        0.40020    0.63610    0.92920    1.000
    C19      C        0.83430    0.99890    0.82670    1.000
    C20      C        0.71910    0.01170    0.56320    1.000
    C21      C        0.72810    0.18530    0.68840    1.000
    C22      C        0.13200    0.13300    0.77920    1.000
    C23      C        0.01940    0.90410    0.63690    1.000
    C24      C        0.09980    0.13610    0.57080    1.000
    C25      C        0.66570    0.99890    0.32670    1.000
    C26      C        0.78090    0.01170    0.06320    1.000
    C27      C        0.77190    0.18530    0.18840    1.000
    C28      C        0.36800    0.13300    0.27920    1.000
    C29      C        0.48060    0.90410    0.13690    1.000
    C30      C        0.40020    0.13610    0.07080    1.000
    C31      C        0.83430    0.49890    0.17330    1.000
    C32      C        0.71910    0.51170    0.43680    1.000
    C33      C        0.72810    0.68530    0.31160    1.000
    C34      C        0.13200    0.63300    0.22080    1.000
    C35      C        0.01940    0.40410    0.36310    1.000
    C36      C        0.09980    0.63610    0.42920    1.000
    C37      C        0.33430    0.50110    0.32670    1.000
    C38      C        0.21910    0.48830    0.06320    1.000
    C39      C        0.22810    0.31470    0.18840    1.000
    C40      C        0.63200    0.36700    0.27920    1.000
    C41      C        0.51940    0.59590    0.13690    1.000
    C42      C        0.59980    0.36390    0.07080    1.000
    C43      C        0.16570    0.00110    0.17330    1.000
    C44      C        0.28090    0.98830    0.43680    1.000
    C45      C        0.27190    0.81470    0.31160    1.000
    C46      C        0.86800    0.86700    0.22080    1.000
    C47      C        0.98060    0.09590    0.36310    1.000
    C48      C        0.90020    0.86390    0.42920    1.000
    O1       O        0.30360    0.97043    0.73273    1.000
    O2       O        0.44560    0.02720    0.65762    1.000
    O3       O        0.34950    0.83369    0.81657    1.000
    O4       O        0.13220    0.85510    0.80000    1.000
    O5       O        0.51380    0.04688    0.81404    1.000
    O6       O        0.58240    0.92415    0.74863    1.000
    O7       O        0.52860    0.92084    0.91618    1.000
    O8       O        0.24820    0.97962    0.87154    1.000
    O9       O        0.60420    0.80270    0.73542    1.000
    O10      O        0.60380    0.80730    0.89227    1.000
    O11      O        0.29610    0.99110    0.98753    1.000
    O12      O        0.50150    0.08510    0.92807    1.000
    O13      O        0.19640    0.47043    0.76727    1.000
    O14      O        0.05440    0.52720    0.84238    1.000
    O15      O        0.15050    0.33369    0.68343    1.000
    O16      O        0.36780    0.35510    0.70000    1.000
    O17      O        0.98620    0.54688    0.68596    1.000
    O18      O        0.91760    0.42415    0.75137    1.000
    O19      O        0.97140    0.42084    0.58382    1.000
    O20      O        0.25180    0.47962    0.62846    1.000
    O21      O        0.89580    0.30270    0.76458    1.000
    O22      O        0.89620    0.30730    0.60773    1.000
    O23      O        0.20390    0.49110    0.51247    1.000
    O24      O        0.99850    0.58510    0.57193    1.000
    O25      O        0.69640    0.52957    0.73273    1.000
    O26      O        0.55440    0.47280    0.65762    1.000
    O27      O        0.65050    0.66631    0.81657    1.000
    O28      O        0.86780    0.64490    0.80000    1.000
    O29      O        0.48620    0.45312    0.81404    1.000
    O30      O        0.41760    0.57585    0.74863    1.000
    O31      O        0.47140    0.57916    0.91618    1.000
    O32      O        0.75180    0.52038    0.87154    1.000
    O33      O        0.39580    0.69730    0.73542    1.000
    O34      O        0.39620    0.69270    0.89227    1.000
    O35      O        0.70390    0.50890    0.98753    1.000
    O36      O        0.49850    0.41490    0.92807    1.000
    O37      O        0.80360    0.02957    0.76727    1.000
    O38      O        0.94560    0.97280    0.84238    1.000
    O39      O        0.84950    0.16631    0.68343    1.000
    O40      O        0.63220    0.14490    0.70000    1.000
    O41      O        0.01380    0.95312    0.68596    1.000
    O42      O        0.08240    0.07585    0.75137    1.000
    O43      O        0.02860    0.07916    0.58382    1.000
    O44      O        0.74820    0.02038    0.62846    1.000
    O45      O        0.10420    0.19730    0.76458    1.000
    O46      O        0.10380    0.19270    0.60773    1.000
    O47      O        0.79610    0.00890    0.51247    1.000
    O48      O        0.00150    0.91490    0.57193    1.000
    O49      O        0.69640    0.02957    0.26727    1.000
    O50      O        0.55440    0.97280    0.34238    1.000
    O51      O        0.65050    0.16631    0.18343    1.000
    O52      O        0.86780    0.14490    0.20000    1.000
    O53      O        0.48620    0.95312    0.18596    1.000
    O54      O        0.41760    0.07585    0.25137    1.000
    O55      O        0.47140    0.07916    0.08382    1.000
    O56      O        0.75180    0.02038    0.12846    1.000
    O57      O        0.39580    0.19730    0.26458    1.000
    O58      O        0.39620    0.19270    0.10773    1.000
    O59      O        0.70390    0.00890    0.01247    1.000
    O60      O        0.49850    0.91490    0.07193    1.000
    O61      O        0.80360    0.52957    0.23273    1.000
    O62      O        0.94560    0.47280    0.15762    1.000
    O63      O        0.84950    0.66631    0.31657    1.000
    O64      O        0.63220    0.64490    0.30000    1.000
    O65      O        0.01380    0.45312    0.31404    1.000
    O66      O        0.08240    0.57585    0.24863    1.000
    O67      O        0.02860    0.57916    0.41618    1.000
    O68      O        0.74820    0.52038    0.37154    1.000
    O69      O        0.10420    0.69730    0.23542    1.000
    O70      O        0.10380    0.69270    0.39227    1.000
    O71      O        0.79610    0.50890    0.48753    1.000
    O72      O        0.00150    0.41490    0.42807    1.000
    O73      O        0.30360    0.47043    0.26727    1.000
    O74      O        0.44560    0.52720    0.34238    1.000
    O75      O        0.34950    0.33369    0.18343    1.000
    O76      O        0.13220    0.35510    0.20000    1.000
    O77      O        0.51380    0.54688    0.18596    1.000
    O78      O        0.58240    0.42415    0.25137    1.000
    O79      O        0.52860    0.42084    0.08382    1.000
    O80      O        0.24820    0.47962    0.12846    1.000
    O81      O        0.60420    0.30270    0.26458    1.000
    O82      O        0.60380    0.30730    0.10773    1.000
    O83      O        0.29610    0.49110    0.01247    1.000
    O84      O        0.50150    0.58510    0.07193    1.000
    O85      O        0.19640    0.97043    0.23273    1.000
    O86      O        0.05440    0.02720    0.15762    1.000
    O87      O        0.15050    0.83369    0.31657    1.000
    O88      O        0.36780    0.85510    0.30000    1.000
    O89      O        0.98620    0.04688    0.31404    1.000
    O90      O        0.91760    0.92415    0.24863    1.000
    O91      O        0.97140    0.92084    0.41618    1.000
    O92      O        0.25180    0.97962    0.37154    1.000
    O93      O        0.89580    0.80270    0.23542    1.000
    O94      O        0.89620    0.80730    0.39227    1.000
    O95      O        0.20390    0.99110    0.48753    1.000
    O96      O        0.99850    0.08510    0.42807    1.000
