# CIF file generated by openbabel 3.1.0, see https://openbabel.org
data_I
_chemical_name_common 'image0'
_cell_length_a 7.8224
_cell_length_b 10.6257
_cell_length_c 13.1557
_cell_angle_alpha 94.72
_cell_angle_beta 92.336
_cell_angle_gamma 110.181
_space_group_name_H-M_alt 'P 1'
_space_group_name_Hall 'P 1'
loop_
    _symmetry_equiv_pos_as_xyz
    x,y,z
loop_
    _atom_site_label
    _atom_site_type_symbol
    _atom_site_fract_x
    _atom_site_fract_y
    _atom_site_fract_z
    _atom_site_occupancy
    In1      In       0.47591    0.75318    0.74624    1.000
    In2      In       0.51272    0.77883    0.24906    1.000
    P1       P        0.80590    0.07170    0.78320    1.000
    H1       H        0.93600    0.09200    0.74400    1.000
    P2       P        0.84570    0.09900    0.22430    1.000
    H2       H        0.95680    0.12170    0.26690    1.000
    P3       P        0.57700    0.73650    0.49970    1.000
    H3       H        0.70000    0.80400    0.53300    1.000
    P4       P        0.57530    0.80800    0.00270    1.000
    H4       H        0.57540    0.89840    0.01470    1.000
    O1       O        0.85740    0.08350    0.89550    1.000
    O2       O        0.77550    0.81470    0.00650    1.000
    O3       O        0.47480    0.72780    0.08760    1.000
    O4       O        0.73130    0.18180    0.75660    1.000
    O5       O        0.72640    0.95910    0.24810    1.000
    O6       O        0.69920    0.66510    0.25190    1.000
    O7       O        0.53430    0.80850    0.41140    1.000
    O8       O        0.44030    0.72260    0.58190    1.000
    O9       O        0.68720    0.93540    0.73940    1.000
    O10      O        0.33780    0.36250    0.26000    1.000
    O11      O        0.47060    0.74700    0.90470    1.000
    O12      O        0.70600    0.46040    0.26140    1.000
    O13      O        0.32750    0.56920    0.25460    1.000
    O14      O        0.58670    0.59880    0.46310    1.000
    H5       H        0.61390    0.56470    0.51200    1.000
    O15      O        0.90110    0.10360    0.11740    1.000
    O16      O        0.76610    0.20420    0.25540    1.000
    C1       C        0.62780    0.54250    0.25690    1.000
    C2       C        0.41340    0.48490    0.25730    1.000
    P5       P        0.75380    0.07060    0.17910    1.000
    H6       H        0.64420    0.04690    0.13490    1.000
    P6       P        0.58600    0.72830    0.99450    1.000
    H7       H        0.58640    0.63810    0.98180    1.000
    In3      In       0.52409    0.24682    0.25376    1.000
    In4      In       0.48728    0.22117    0.75094    1.000
    P7       P        0.19410    0.92830    0.21680    1.000
    H8       H        0.06400    0.90800    0.25600    1.000
    P8       P        0.15430    0.90100    0.77570    1.000
    H9       H        0.04320    0.87830    0.73310    1.000
    P9       P        0.42300    0.26350    0.50030    1.000
    H10      H        0.30000    0.19600    0.46700    1.000
    P10      P        0.42470    0.19200    0.99730    1.000
    H11      H        0.42460    0.10160    0.98530    1.000
    O17      O        0.14260    0.91650    0.10450    1.000
    O18      O        0.22450    0.18530    0.99350    1.000
    O19      O        0.52520    0.27220    0.91240    1.000
    O20      O        0.26870    0.81820    0.24340    1.000
    O21      O        0.27360    0.04090    0.75190    1.000
    O22      O        0.30080    0.33490    0.74810    1.000
    O23      O        0.46570    0.19150    0.58860    1.000
    O24      O        0.55970    0.27740    0.41810    1.000
    O25      O        0.31280    0.06460    0.26060    1.000
    O26      O        0.66220    0.63750    0.74000    1.000
    O27      O        0.52940    0.25300    0.09530    1.000
    O28      O        0.29400    0.53960    0.73860    1.000
    O29      O        0.67250    0.43080    0.74540    1.000
    O30      O        0.41330    0.40120    0.53690    1.000
    H12      H        0.38610    0.43530    0.48800    1.000
    O31      O        0.09890    0.89640    0.88260    1.000
    O32      O        0.23390    0.79580    0.74460    1.000
    C3       C        0.37220    0.45750    0.74310    1.000
    C4       C        0.58660    0.51510    0.74270    1.000
    P11      P        0.24620    0.92940    0.82090    1.000
    H13      H        0.35580    0.95310    0.86510    1.000
    P12      P        0.41400    0.27170    0.00550    1.000
    H14      H        0.41360    0.36190    0.01820    1.000
    In5      In       0.00000    0.00000    0.00000    1.000
