# CIF file generated by openbabel 3.1.0, see https://openbabel.org
data_I
_chemical_name_common 'image0'
_cell_length_a 35.067
_cell_length_b 24.035
_cell_length_c 26.081
_cell_angle_alpha 90
_cell_angle_beta 132.068
_cell_angle_gamma 90
_space_group_name_H-M_alt 'P 1'
_space_group_name_Hall 'P 1'
loop_
    _symmetry_equiv_pos_as_xyz
    x,y,z
loop_
    _atom_site_label
    _atom_site_type_symbol
    _atom_site_fract_x
    _atom_site_fract_y
    _atom_site_fract_z
    _atom_site_occupancy
    Gd1      Gd       0.40547    0.23478    0.39978    1.000
    Gd2      Gd       0.24023    0.26517    0.26238    1.000
    O1       O        0.35720    0.17690    0.40920    1.000
    O2       O        0.27280    0.19170    0.34020    1.000
    O3       O        0.34320    0.79750    0.78590    1.000
    O4       O        0.25510    0.80080    0.71440    1.000
    O5       O        0.37280    0.31030    0.32700    1.000
    O6       O        0.28580    0.31860    0.24500    1.000
    O7       O        0.38630    0.70430    0.95130    1.000
    O8       O        0.30320    0.69550    0.86680    1.000
    O9       O        0.44090    0.14380    0.40660    1.000
    O10      O        0.45300    0.21080    0.36700    1.000
    O11      O        0.69670    0.85060    0.24880    1.000
    O12      O        0.69910    0.78400    0.31250    1.000
    C1       C        0.31240    0.16560    0.38450    1.000
    C2       C        0.31080    0.12080    0.42310    1.000
    C3       C        0.30190    0.85070    0.68790    1.000
    C4       C        0.26740    0.11450    0.41330    1.000
    H1       H        0.23898    0.13709    0.38176    1.000
    C5       C        0.34930    0.08340    0.46550    1.000
    H2       H        0.37908    0.08744    0.47288    1.000
    C6       C        0.26560    0.07470    0.45040    1.000
    H3       H        0.23723    0.07469    0.44642    1.000
    C7       C        0.34740    0.04210    0.49650    1.000
    H4       H        0.37395    0.01628    0.52182    1.000
    C8       C        0.30200    0.03640    0.49120    1.000
    C9       C        0.30300    0.99550    0.53020    1.000
    C10      C        0.30020    0.96160    0.56070    1.000
    C11      C        0.25350    0.90830    0.58330    1.000
    H5       H        0.22199    0.92222    0.54396    1.000
    C12      C        0.34440    0.90220    0.65800    1.000
    H6       H        0.37481    0.91100    0.66869    1.000
    C13      C        0.29790    0.92270    0.59840    1.000
    C14      C        0.25610    0.87320    0.62670    1.000
    H7       H        0.22550    0.86339    0.61505    1.000
    C15      C        0.34500    0.86770    0.70230    1.000
    H8       H        0.37659    0.85612    0.74352    1.000
    C16      C        0.30220    0.81220    0.73440    1.000
    C17      C        0.33100    0.33160    0.27130    1.000
    C18      C        0.33680    0.37030    0.23380    1.000
    C19      C        0.29280    0.39250    0.17300    1.000
    H9       H        0.26101    0.38211    0.15761    1.000
    C20      C        0.38060    0.38800    0.25200    1.000
    H10      H        0.41068    0.37385    0.29331    1.000
    C21      C        0.29480    0.43170    0.13280    1.000
    H11      H        0.26551    0.45037    0.09547    1.000
    C22      C        0.38610    0.42280    0.21900    1.000
    H12      H        0.41804    0.43594    0.23707    1.000
    C23      C        0.33770    0.43950    0.15000    1.000
    C24      C        0.34830    0.48250    0.11700    1.000
    C25      C        0.34700    0.51380    0.08030    1.000
    C26      C        0.34490    0.55590    0.03970    1.000
    C27      C        0.30250    0.56810    0.97500    1.000
    H13      H        0.27251    0.54822    0.95400    1.000
    C28      C        0.39080    0.58320    0.06840    1.000
    H14      H        0.42110    0.57326    0.11220    1.000
    C29      C        0.30240    0.60940    0.93800    1.000
    H15      H        0.27163    0.61951    0.89484    1.000
    C30      C        0.39160    0.62440    0.03240    1.000
    H16      H        0.42164    0.64450    0.05373    1.000
    C31      C        0.34770    0.63620    0.96440    1.000
    C32      C        0.34800    0.68050    0.92790    1.000
    C33      C        0.46130    0.16540    0.38480    1.000
    C34      C        0.48310    0.12020    0.36870    1.000
    C35      C        0.50580    0.13850    0.34300    1.000
    H17      H        0.50309    0.17593    0.33143    1.000
    C36      C        0.48630    0.06690    0.38140    1.000
    H18      H        0.47164    0.05471    0.39863    1.000
    C37      C        0.53130    0.10400    0.33300    1.000
    H19      H        0.54889    0.11802    0.32043    1.000
    C38      C        0.50990    0.02600    0.37160    1.000
    H20      H        0.51212    0.98884    0.38338    1.000
    C39      C        0.53020    0.04590    0.34220    1.000
    C40      C        0.55990    0.01140    0.33530    1.000
    C41      C        0.57950    0.97800    0.32550    1.000
    C42      C        0.60350    0.93960    0.31160    1.000
    C43      C        0.62180    0.88960    0.34440    1.000
    H21      H        0.61534    0.87794    0.37200    1.000
    C44      C        0.61690    0.95880    0.27370    1.000
    H22      H        0.60953    0.99517    0.25732    1.000
    C45      C        0.65050    0.85520    0.33690    1.000
    H23      H        0.66354    0.82115    0.35940    1.000
    C46      C        0.64080    0.92290    0.26160    1.000
    H24      H        0.64439    0.93267    0.23051    1.000
    C47      C        0.65860    0.87450    0.29440    1.000
    C48      C        0.68540    0.83140    0.28210    1.000
    Gd3      Gd       0.90547    0.73478    0.39978    1.000
    Gd4      Gd       0.74023    0.76517    0.26238    1.000
    O13      O        0.85720    0.67690    0.40920    1.000
    O14      O        0.77280    0.69170    0.34020    1.000
    O15      O        0.84320    0.29750    0.78590    1.000
    O16      O        0.75510    0.30080    0.71440    1.000
    O17      O        0.87280    0.81030    0.32700    1.000
    O18      O        0.78580    0.81860    0.24500    1.000
    O19      O        0.88630    0.20430    0.95130    1.000
    O20      O        0.80320    0.19550    0.86680    1.000
    O21      O        0.94090    0.64380    0.40660    1.000
    O22      O        0.95300    0.71080    0.36700    1.000
    O23      O        0.19670    0.35060    0.24880    1.000
    O24      O        0.19910    0.28400    0.31250    1.000
    C49      C        0.81240    0.66560    0.38450    1.000
    C50      C        0.81080    0.62080    0.42310    1.000
    C51      C        0.80190    0.35070    0.68790    1.000
    C52      C        0.76740    0.61450    0.41330    1.000
    H25      H        0.73898    0.63709    0.38176    1.000
    C53      C        0.84930    0.58340    0.46550    1.000
    H26      H        0.87908    0.58744    0.47288    1.000
    C54      C        0.76560    0.57470    0.45040    1.000
    H27      H        0.73723    0.57469    0.44642    1.000
    C55      C        0.84740    0.54210    0.49650    1.000
    H28      H        0.87395    0.51628    0.52182    1.000
    C56      C        0.80200    0.53640    0.49120    1.000
    C57      C        0.80300    0.49550    0.53020    1.000
    C58      C        0.80020    0.46160    0.56070    1.000
    C59      C        0.75350    0.40830    0.58330    1.000
    H29      H        0.72199    0.42222    0.54396    1.000
    C60      C        0.84440    0.40220    0.65800    1.000
    H30      H        0.87481    0.41100    0.66869    1.000
    C61      C        0.79790    0.42270    0.59840    1.000
    C62      C        0.75610    0.37320    0.62670    1.000
    H31      H        0.72550    0.36339    0.61505    1.000
    C63      C        0.84500    0.36770    0.70230    1.000
    H32      H        0.87659    0.35612    0.74352    1.000
    C64      C        0.80220    0.31220    0.73440    1.000
    C65      C        0.83100    0.83160    0.27130    1.000
    C66      C        0.83680    0.87030    0.23380    1.000
    C67      C        0.79280    0.89250    0.17300    1.000
    H33      H        0.76101    0.88211    0.15761    1.000
    C68      C        0.88060    0.88800    0.25200    1.000
    H34      H        0.91068    0.87385    0.29331    1.000
    C69      C        0.79480    0.93170    0.13280    1.000
    H35      H        0.76551    0.95037    0.09547    1.000
    C70      C        0.88610    0.92280    0.21900    1.000
    H36      H        0.91804    0.93594    0.23707    1.000
    C71      C        0.83770    0.93950    0.15000    1.000
    C72      C        0.84830    0.98250    0.11700    1.000
    C73      C        0.84700    0.01380    0.08030    1.000
    C74      C        0.84490    0.05590    0.03970    1.000
    C75      C        0.80250    0.06810    0.97500    1.000
    H37      H        0.77251    0.04822    0.95400    1.000
    C76      C        0.89080    0.08320    0.06840    1.000
    H38      H        0.92110    0.07326    0.11220    1.000
    C77      C        0.80240    0.10940    0.93800    1.000
    H39      H        0.77163    0.11951    0.89484    1.000
    C78      C        0.89160    0.12440    0.03240    1.000
    H40      H        0.92164    0.14450    0.05373    1.000
    C79      C        0.84770    0.13620    0.96440    1.000
    C80      C        0.84800    0.18050    0.92790    1.000
    C81      C        0.96130    0.66540    0.38480    1.000
    C82      C        0.98310    0.62020    0.36870    1.000
    C83      C        0.00580    0.63850    0.34300    1.000
    H41      H        0.00309    0.67593    0.33143    1.000
    C84      C        0.98630    0.56690    0.38140    1.000
    H42      H        0.97164    0.55471    0.39863    1.000
    C85      C        0.03130    0.60400    0.33300    1.000
    H43      H        0.04889    0.61802    0.32043    1.000
    C86      C        0.00990    0.52600    0.37160    1.000
    H44      H        0.01212    0.48884    0.38338    1.000
    C87      C        0.03020    0.54590    0.34220    1.000
    C88      C        0.05990    0.51140    0.33530    1.000
    C89      C        0.07950    0.47800    0.32550    1.000
    C90      C        0.10350    0.43960    0.31160    1.000
    C91      C        0.12180    0.38960    0.34440    1.000
    H45      H        0.11534    0.37794    0.37200    1.000
    C92      C        0.11690    0.45880    0.27370    1.000
    H46      H        0.10953    0.49517    0.25732    1.000
    C93      C        0.15050    0.35520    0.33690    1.000
    H47      H        0.16354    0.32115    0.35940    1.000
    C94      C        0.14080    0.42290    0.26160    1.000
    H48      H        0.14439    0.43267    0.23051    1.000
    C95      C        0.15860    0.37450    0.29440    1.000
    C96      C        0.18540    0.33140    0.28210    1.000
    Gd5      Gd       0.40547    0.76522    0.89978    1.000
    Gd6      Gd       0.24023    0.73483    0.76238    1.000
    O25      O        0.35720    0.82310    0.90920    1.000
    O26      O        0.27280    0.80830    0.84020    1.000
    O27      O        0.34320    0.20250    0.28590    1.000
    O28      O        0.25510    0.19920    0.21440    1.000
    O29      O        0.37280    0.68970    0.82700    1.000
    O30      O        0.28580    0.68140    0.74500    1.000
    O31      O        0.38630    0.29570    0.45130    1.000
    O32      O        0.30320    0.30450    0.36680    1.000
    O33      O        0.44090    0.85620    0.90660    1.000
    O34      O        0.45300    0.78920    0.86700    1.000
    O35      O        0.69670    0.14940    0.74880    1.000
    O36      O        0.69910    0.21600    0.81250    1.000
    C97      C        0.31240    0.83440    0.88450    1.000
    C98      C        0.31080    0.87920    0.92310    1.000
    C99      C        0.30190    0.14930    0.18790    1.000
    C100     C        0.26740    0.88550    0.91330    1.000
    H49      H        0.23898    0.86291    0.88176    1.000
    C101     C        0.34930    0.91660    0.96550    1.000
    H50      H        0.37908    0.91256    0.97288    1.000
    C102     C        0.26560    0.92530    0.95040    1.000
    H51      H        0.23723    0.92531    0.94642    1.000
    C103     C        0.34740    0.95790    0.99650    1.000
    H52      H        0.37395    0.98372    0.02182    1.000
    C104     C        0.30200    0.96360    0.99120    1.000
    C105     C        0.30300    0.00450    0.03020    1.000
    C106     C        0.30020    0.03840    0.06070    1.000
    C107     C        0.25350    0.09170    0.08330    1.000
    H53      H        0.22199    0.07778    0.04396    1.000
    C108     C        0.34440    0.09780    0.15800    1.000
    H54      H        0.37481    0.08900    0.16869    1.000
    C109     C        0.29790    0.07730    0.09840    1.000
    C110     C        0.25610    0.12680    0.12670    1.000
    H55      H        0.22550    0.13661    0.11505    1.000
    C111     C        0.34500    0.13230    0.20230    1.000
    H56      H        0.37659    0.14388    0.24352    1.000
    C112     C        0.30220    0.18780    0.23440    1.000
    C113     C        0.33100    0.66840    0.77130    1.000
    C114     C        0.33680    0.62970    0.73380    1.000
    C115     C        0.29280    0.60750    0.67300    1.000
    H57      H        0.26101    0.61789    0.65761    1.000
    C116     C        0.38060    0.61200    0.75200    1.000
    H58      H        0.41068    0.62615    0.79331    1.000
    C117     C        0.29480    0.56830    0.63280    1.000
    H59      H        0.26551    0.54963    0.59547    1.000
    C118     C        0.38610    0.57720    0.71900    1.000
    H60      H        0.41804    0.56406    0.73707    1.000
    C119     C        0.33770    0.56050    0.65000    1.000
    C120     C        0.34830    0.51750    0.61700    1.000
    C121     C        0.34700    0.48620    0.58030    1.000
    C122     C        0.34490    0.44410    0.53970    1.000
    C123     C        0.30250    0.43190    0.47500    1.000
    H61      H        0.27251    0.45178    0.45400    1.000
    C124     C        0.39080    0.41680    0.56840    1.000
    H62      H        0.42110    0.42674    0.61220    1.000
    C125     C        0.30240    0.39060    0.43800    1.000
    H63      H        0.27163    0.38049    0.39484    1.000
    C126     C        0.39160    0.37560    0.53240    1.000
    H64      H        0.42164    0.35550    0.55373    1.000
    C127     C        0.34770    0.36380    0.46440    1.000
    C128     C        0.34800    0.31950    0.42790    1.000
    C129     C        0.46130    0.83460    0.88480    1.000
    C130     C        0.48310    0.87980    0.86870    1.000
    C131     C        0.50580    0.86150    0.84300    1.000
    H65      H        0.50309    0.82407    0.83143    1.000
    C132     C        0.48630    0.93310    0.88140    1.000
    H66      H        0.47164    0.94529    0.89863    1.000
    C133     C        0.53130    0.89600    0.83300    1.000
    H67      H        0.54889    0.88198    0.82043    1.000
    C134     C        0.50990    0.97400    0.87160    1.000
    H68      H        0.51212    0.01116    0.88338    1.000
    C135     C        0.53020    0.95410    0.84220    1.000
    C136     C        0.55990    0.98860    0.83530    1.000
    C137     C        0.57950    0.02200    0.82550    1.000
    C138     C        0.60350    0.06040    0.81160    1.000
    C139     C        0.62180    0.11040    0.84440    1.000
    H69      H        0.61534    0.12206    0.87200    1.000
    C140     C        0.61690    0.04120    0.77370    1.000
    H70      H        0.60953    0.00483    0.75732    1.000
    C141     C        0.65050    0.14480    0.83690    1.000
    H71      H        0.66354    0.17885    0.85940    1.000
    C142     C        0.64080    0.07710    0.76160    1.000
    H72      H        0.64439    0.06733    0.73051    1.000
    C143     C        0.65860    0.12550    0.79440    1.000
    C144     C        0.68540    0.16860    0.78210    1.000
    Gd7      Gd       0.90547    0.26522    0.89978    1.000
    Gd8      Gd       0.74023    0.23483    0.76238    1.000
    O37      O        0.85720    0.32310    0.90920    1.000
    O38      O        0.77280    0.30830    0.84020    1.000
    O39      O        0.84320    0.70250    0.28590    1.000
    O40      O        0.75510    0.69920    0.21440    1.000
    O41      O        0.87280    0.18970    0.82700    1.000
    O42      O        0.78580    0.18140    0.74500    1.000
    O43      O        0.88630    0.79570    0.45130    1.000
    O44      O        0.80320    0.80450    0.36680    1.000
    O45      O        0.94090    0.35620    0.90660    1.000
    O46      O        0.95300    0.28920    0.86700    1.000
    O47      O        0.19670    0.64940    0.74880    1.000
    O48      O        0.19910    0.71600    0.81250    1.000
    C145     C        0.81240    0.33440    0.88450    1.000
    C146     C        0.81080    0.37920    0.92310    1.000
    C147     C        0.80190    0.64930    0.18790    1.000
    C148     C        0.76740    0.38550    0.91330    1.000
    H73      H        0.73898    0.36291    0.88176    1.000
    C149     C        0.84930    0.41660    0.96550    1.000
    H74      H        0.87908    0.41256    0.97288    1.000
    C150     C        0.76560    0.42530    0.95040    1.000
    H75      H        0.73723    0.42531    0.94642    1.000
    C151     C        0.84740    0.45790    0.99650    1.000
    H76      H        0.87395    0.48372    0.02182    1.000
    C152     C        0.80200    0.46360    0.99120    1.000
    C153     C        0.80300    0.50450    0.03020    1.000
    C154     C        0.80020    0.53840    0.06070    1.000
    C155     C        0.75350    0.59170    0.08330    1.000
    H77      H        0.72199    0.57778    0.04396    1.000
    C156     C        0.84440    0.59780    0.15800    1.000
    H78      H        0.87481    0.58900    0.16869    1.000
    C157     C        0.79790    0.57730    0.09840    1.000
    C158     C        0.75610    0.62680    0.12670    1.000
    H79      H        0.72550    0.63661    0.11505    1.000
    C159     C        0.84500    0.63230    0.20230    1.000
    H80      H        0.87659    0.64388    0.24352    1.000
    C160     C        0.80220    0.68780    0.23440    1.000
    C161     C        0.83100    0.16840    0.77130    1.000
    C162     C        0.83680    0.12970    0.73380    1.000
    C163     C        0.79280    0.10750    0.67300    1.000
    H81      H        0.76101    0.11789    0.65761    1.000
    C164     C        0.88060    0.11200    0.75200    1.000
    H82      H        0.91068    0.12615    0.79331    1.000
    C165     C        0.79480    0.06830    0.63280    1.000
    H83      H        0.76551    0.04963    0.59547    1.000
    C166     C        0.88610    0.07720    0.71900    1.000
    H84      H        0.91804    0.06406    0.73707    1.000
    C167     C        0.83770    0.06050    0.65000    1.000
    C168     C        0.84830    0.01750    0.61700    1.000
    C169     C        0.84700    0.98620    0.58030    1.000
    C170     C        0.84490    0.94410    0.53970    1.000
    C171     C        0.80250    0.93190    0.47500    1.000
    H85      H        0.77251    0.95178    0.45400    1.000
    C172     C        0.89080    0.91680    0.56840    1.000
    H86      H        0.92110    0.92674    0.61220    1.000
    C173     C        0.80240    0.89060    0.43800    1.000
    H87      H        0.77163    0.88049    0.39484    1.000
    C174     C        0.89160    0.87560    0.53240    1.000
    H88      H        0.92164    0.85550    0.55373    1.000
    C175     C        0.84770    0.86380    0.46440    1.000
    C176     C        0.84800    0.81950    0.42790    1.000
    C177     C        0.96130    0.33460    0.88480    1.000
    C178     C        0.98310    0.37980    0.86870    1.000
    C179     C        0.00580    0.36150    0.84300    1.000
    H89      H        0.00309    0.32407    0.83143    1.000
    C180     C        0.98630    0.43310    0.88140    1.000
    H90      H        0.97164    0.44529    0.89863    1.000
    C181     C        0.03130    0.39600    0.83300    1.000
    H91      H        0.04889    0.38198    0.82043    1.000
    C182     C        0.00990    0.47400    0.87160    1.000
    H92      H        0.01212    0.51116    0.88338    1.000
    C183     C        0.03020    0.45410    0.84220    1.000
    C184     C        0.05990    0.48860    0.83530    1.000
    C185     C        0.07950    0.52200    0.82550    1.000
    C186     C        0.10350    0.56040    0.81160    1.000
    C187     C        0.12180    0.61040    0.84440    1.000
    H93      H        0.11534    0.62206    0.87200    1.000
    C188     C        0.11690    0.54120    0.77370    1.000
    H94      H        0.10953    0.50483    0.75732    1.000
    C189     C        0.15050    0.64480    0.83690    1.000
    H95      H        0.16354    0.67885    0.85940    1.000
    C190     C        0.14080    0.57710    0.76160    1.000
    H96      H        0.14439    0.56733    0.73051    1.000
    C191     C        0.15860    0.62550    0.79440    1.000
    C192     C        0.18540    0.66860    0.78210    1.000
    Gd9      Gd       0.59453    0.23478    0.10022    1.000
    Gd10     Gd       0.75977    0.26517    0.23762    1.000
    O49      O        0.64280    0.17690    0.09080    1.000
    O50      O        0.72720    0.19170    0.15980    1.000
    O51      O        0.65680    0.79750    0.71410    1.000
    O52      O        0.74490    0.80080    0.78560    1.000
    O53      O        0.62720    0.31030    0.17300    1.000
    O54      O        0.71420    0.31860    0.25500    1.000
    O55      O        0.61370    0.70430    0.54870    1.000
    O56      O        0.69680    0.69550    0.63320    1.000
    O57      O        0.55910    0.14380    0.09340    1.000
    O58      O        0.54700    0.21080    0.13300    1.000
    O59      O        0.30330    0.85060    0.25120    1.000
    O60      O        0.30090    0.78400    0.18750    1.000
    C193     C        0.68760    0.16560    0.11550    1.000
    C194     C        0.68920    0.12080    0.07690    1.000
    C195     C        0.69810    0.85070    0.81210    1.000
    C196     C        0.73260    0.11450    0.08670    1.000
    H97      H        0.76102    0.13709    0.11824    1.000
    C197     C        0.65070    0.08340    0.03450    1.000
    H98      H        0.62092    0.08744    0.02712    1.000
    C198     C        0.73440    0.07470    0.04960    1.000
    H99      H        0.76277    0.07469    0.05358    1.000
    C199     C        0.65260    0.04210    0.00350    1.000
    H100     H        0.62605    0.01628    0.97818    1.000
    C200     C        0.69800    0.03640    0.00880    1.000
    C201     C        0.69700    0.99550    0.96980    1.000
    C202     C        0.69980    0.96160    0.93930    1.000
    C203     C        0.74650    0.90830    0.91670    1.000
    H101     H        0.77801    0.92222    0.95604    1.000
    C204     C        0.65560    0.90220    0.84200    1.000
    H102     H        0.62519    0.91100    0.83131    1.000
    C205     C        0.70210    0.92270    0.90160    1.000
    C206     C        0.74390    0.87320    0.87330    1.000
    H103     H        0.77450    0.86339    0.88495    1.000
    C207     C        0.65500    0.86770    0.79770    1.000
    H104     H        0.62341    0.85612    0.75648    1.000
    C208     C        0.69780    0.81220    0.76560    1.000
    C209     C        0.66900    0.33160    0.22870    1.000
    C210     C        0.66320    0.37030    0.26620    1.000
    C211     C        0.70720    0.39250    0.32700    1.000
    H105     H        0.73899    0.38211    0.34239    1.000
    C212     C        0.61940    0.38800    0.24800    1.000
    H106     H        0.58932    0.37385    0.20669    1.000
    C213     C        0.70520    0.43170    0.36720    1.000
    H107     H        0.73449    0.45037    0.40453    1.000
    C214     C        0.61390    0.42280    0.28100    1.000
    H108     H        0.58196    0.43594    0.26293    1.000
    C215     C        0.66230    0.43950    0.35000    1.000
    C216     C        0.65170    0.48250    0.38300    1.000
    C217     C        0.65300    0.51380    0.41970    1.000
    C218     C        0.65510    0.55590    0.46030    1.000
    C219     C        0.69750    0.56810    0.52500    1.000
    H109     H        0.72749    0.54822    0.54600    1.000
    C220     C        0.60920    0.58320    0.43160    1.000
    H110     H        0.57890    0.57326    0.38780    1.000
    C221     C        0.69760    0.60940    0.56200    1.000
    H111     H        0.72837    0.61951    0.60516    1.000
    C222     C        0.60840    0.62440    0.46760    1.000
    H112     H        0.57836    0.64450    0.44627    1.000
    C223     C        0.65230    0.63620    0.53560    1.000
    C224     C        0.65200    0.68050    0.57210    1.000
    C225     C        0.53870    0.16540    0.11520    1.000
    C226     C        0.51690    0.12020    0.13130    1.000
    C227     C        0.49420    0.13850    0.15700    1.000
    H113     H        0.49691    0.17593    0.16857    1.000
    C228     C        0.51370    0.06690    0.11860    1.000
    H114     H        0.52836    0.05471    0.10137    1.000
    C229     C        0.46870    0.10400    0.16700    1.000
    H115     H        0.45111    0.11802    0.17957    1.000
    C230     C        0.49010    0.02600    0.12840    1.000
    H116     H        0.48788    0.98884    0.11662    1.000
    C231     C        0.46980    0.04590    0.15780    1.000
    C232     C        0.44010    0.01140    0.16470    1.000
    C233     C        0.42050    0.97800    0.17450    1.000
    C234     C        0.39650    0.93960    0.18840    1.000
    C235     C        0.37820    0.88960    0.15560    1.000
    H117     H        0.38466    0.87794    0.12800    1.000
    C236     C        0.38310    0.95880    0.22630    1.000
    H118     H        0.39047    0.99517    0.24268    1.000
    C237     C        0.34950    0.85520    0.16310    1.000
    H119     H        0.33646    0.82115    0.14060    1.000
    C238     C        0.35920    0.92290    0.23840    1.000
    H120     H        0.35561    0.93267    0.26949    1.000
    C239     C        0.34140    0.87450    0.20560    1.000
    C240     C        0.31460    0.83140    0.21790    1.000
    Gd11     Gd       0.09453    0.73478    0.10022    1.000
    Gd12     Gd       0.25977    0.76517    0.23762    1.000
    O61      O        0.14280    0.67690    0.09080    1.000
    O62      O        0.22720    0.69170    0.15980    1.000
    O63      O        0.15680    0.29750    0.71410    1.000
    O64      O        0.24490    0.30080    0.78560    1.000
    O65      O        0.12720    0.81030    0.17300    1.000
    O66      O        0.21420    0.81860    0.25500    1.000
    O67      O        0.11370    0.20430    0.54870    1.000
    O68      O        0.19680    0.19550    0.63320    1.000
    O69      O        0.05910    0.64380    0.09340    1.000
    O70      O        0.04700    0.71080    0.13300    1.000
    O71      O        0.80330    0.35060    0.25120    1.000
    O72      O        0.80090    0.28400    0.18750    1.000
    C241     C        0.18760    0.66560    0.11550    1.000
    C242     C        0.18920    0.62080    0.07690    1.000
    C243     C        0.19810    0.35070    0.81210    1.000
    C244     C        0.23260    0.61450    0.08670    1.000
    H121     H        0.26102    0.63709    0.11824    1.000
    C245     C        0.15070    0.58340    0.03450    1.000
    H122     H        0.12092    0.58744    0.02712    1.000
    C246     C        0.23440    0.57470    0.04960    1.000
    H123     H        0.26277    0.57469    0.05358    1.000
    C247     C        0.15260    0.54210    0.00350    1.000
    H124     H        0.12605    0.51628    0.97818    1.000
    C248     C        0.19800    0.53640    0.00880    1.000
    C249     C        0.19700    0.49550    0.96980    1.000
    C250     C        0.19980    0.46160    0.93930    1.000
    C251     C        0.24650    0.40830    0.91670    1.000
    H125     H        0.27801    0.42222    0.95604    1.000
    C252     C        0.15560    0.40220    0.84200    1.000
    H126     H        0.12519    0.41100    0.83131    1.000
    C253     C        0.20210    0.42270    0.90160    1.000
    C254     C        0.24390    0.37320    0.87330    1.000
    H127     H        0.27450    0.36339    0.88495    1.000
    C255     C        0.15500    0.36770    0.79770    1.000
    H128     H        0.12341    0.35612    0.75648    1.000
    C256     C        0.19780    0.31220    0.76560    1.000
    C257     C        0.16900    0.83160    0.22870    1.000
    C258     C        0.16320    0.87030    0.26620    1.000
    C259     C        0.20720    0.89250    0.32700    1.000
    H129     H        0.23899    0.88211    0.34239    1.000
    C260     C        0.11940    0.88800    0.24800    1.000
    H130     H        0.08932    0.87385    0.20669    1.000
    C261     C        0.20520    0.93170    0.36720    1.000
    H131     H        0.23449    0.95037    0.40453    1.000
    C262     C        0.11390    0.92280    0.28100    1.000
    H132     H        0.08196    0.93594    0.26293    1.000
    C263     C        0.16230    0.93950    0.35000    1.000
    C264     C        0.15170    0.98250    0.38300    1.000
    C265     C        0.15300    0.01380    0.41970    1.000
    C266     C        0.15510    0.05590    0.46030    1.000
    C267     C        0.19750    0.06810    0.52500    1.000
    H133     H        0.22749    0.04822    0.54600    1.000
    C268     C        0.10920    0.08320    0.43160    1.000
    H134     H        0.07890    0.07326    0.38780    1.000
    C269     C        0.19760    0.10940    0.56200    1.000
    H135     H        0.22837    0.11951    0.60516    1.000
    C270     C        0.10840    0.12440    0.46760    1.000
    H136     H        0.07836    0.14450    0.44627    1.000
    C271     C        0.15230    0.13620    0.53560    1.000
    C272     C        0.15200    0.18050    0.57210    1.000
    C273     C        0.03870    0.66540    0.11520    1.000
    C274     C        0.01690    0.62020    0.13130    1.000
    C275     C        0.99420    0.63850    0.15700    1.000
    H137     H        0.99691    0.67593    0.16857    1.000
    C276     C        0.01370    0.56690    0.11860    1.000
    H138     H        0.02836    0.55471    0.10137    1.000
    C277     C        0.96870    0.60400    0.16700    1.000
    H139     H        0.95111    0.61802    0.17957    1.000
    C278     C        0.99010    0.52600    0.12840    1.000
    H140     H        0.98788    0.48884    0.11662    1.000
    C279     C        0.96980    0.54590    0.15780    1.000
    C280     C        0.94010    0.51140    0.16470    1.000
    C281     C        0.92050    0.47800    0.17450    1.000
    C282     C        0.89650    0.43960    0.18840    1.000
    C283     C        0.87820    0.38960    0.15560    1.000
    H141     H        0.88466    0.37794    0.12800    1.000
    C284     C        0.88310    0.45880    0.22630    1.000
    H142     H        0.89047    0.49517    0.24268    1.000
    C285     C        0.84950    0.35520    0.16310    1.000
    H143     H        0.83646    0.32115    0.14060    1.000
    C286     C        0.85920    0.42290    0.23840    1.000
    H144     H        0.85561    0.43267    0.26949    1.000
    C287     C        0.84140    0.37450    0.20560    1.000
    C288     C        0.81460    0.33140    0.21790    1.000
    Gd13     Gd       0.59453    0.76522    0.60022    1.000
    Gd14     Gd       0.75977    0.73483    0.73762    1.000
    O73      O        0.64280    0.82310    0.59080    1.000
    O74      O        0.72720    0.80830    0.65980    1.000
    O75      O        0.65680    0.20250    0.21410    1.000
    O76      O        0.74490    0.19920    0.28560    1.000
    O77      O        0.62720    0.68970    0.67300    1.000
    O78      O        0.71420    0.68140    0.75500    1.000
    O79      O        0.61370    0.29570    0.04870    1.000
    O80      O        0.69680    0.30450    0.13320    1.000
    O81      O        0.55910    0.85620    0.59340    1.000
    O82      O        0.54700    0.78920    0.63300    1.000
    O83      O        0.30330    0.14940    0.75120    1.000
    O84      O        0.30090    0.21600    0.68750    1.000
    C289     C        0.68760    0.83440    0.61550    1.000
    C290     C        0.68920    0.87920    0.57690    1.000
    C291     C        0.69810    0.14930    0.31210    1.000
    C292     C        0.73260    0.88550    0.58670    1.000
    H145     H        0.76102    0.86291    0.61824    1.000
    C293     C        0.65070    0.91660    0.53450    1.000
    H146     H        0.62092    0.91256    0.52712    1.000
    C294     C        0.73440    0.92530    0.54960    1.000
    H147     H        0.76277    0.92531    0.55358    1.000
    C295     C        0.65260    0.95790    0.50350    1.000
    H148     H        0.62605    0.98372    0.47818    1.000
    C296     C        0.69800    0.96360    0.50880    1.000
    C297     C        0.69700    0.00450    0.46980    1.000
    C298     C        0.69980    0.03840    0.43930    1.000
    C299     C        0.74650    0.09170    0.41670    1.000
    H149     H        0.77801    0.07778    0.45604    1.000
    C300     C        0.65560    0.09780    0.34200    1.000
    H150     H        0.62519    0.08900    0.33131    1.000
    C301     C        0.70210    0.07730    0.40160    1.000
    C302     C        0.74390    0.12680    0.37330    1.000
    H151     H        0.77450    0.13661    0.38495    1.000
    C303     C        0.65500    0.13230    0.29770    1.000
    H152     H        0.62341    0.14388    0.25648    1.000
    C304     C        0.69780    0.18780    0.26560    1.000
    C305     C        0.66900    0.66840    0.72870    1.000
    C306     C        0.66320    0.62970    0.76620    1.000
    C307     C        0.70720    0.60750    0.82700    1.000
    H153     H        0.73899    0.61789    0.84239    1.000
    C308     C        0.61940    0.61200    0.74800    1.000
    H154     H        0.58932    0.62615    0.70669    1.000
    C309     C        0.70520    0.56830    0.86720    1.000
    H155     H        0.73449    0.54963    0.90453    1.000
    C310     C        0.61390    0.57720    0.78100    1.000
    H156     H        0.58196    0.56406    0.76293    1.000
    C311     C        0.66230    0.56050    0.85000    1.000
    C312     C        0.65170    0.51750    0.88300    1.000
    C313     C        0.65300    0.48620    0.91970    1.000
    C314     C        0.65510    0.44410    0.96030    1.000
    C315     C        0.69750    0.43190    0.02500    1.000
    H157     H        0.72749    0.45178    0.04600    1.000
    C316     C        0.60920    0.41680    0.93160    1.000
    H158     H        0.57890    0.42674    0.88780    1.000
    C317     C        0.69760    0.39060    0.06200    1.000
    H159     H        0.72837    0.38049    0.10516    1.000
    C318     C        0.60840    0.37560    0.96760    1.000
    H160     H        0.57836    0.35550    0.94627    1.000
    C319     C        0.65230    0.36380    0.03560    1.000
    C320     C        0.65200    0.31950    0.07210    1.000
    C321     C        0.53870    0.83460    0.61520    1.000
    C322     C        0.51690    0.87980    0.63130    1.000
    C323     C        0.49420    0.86150    0.65700    1.000
    H161     H        0.49691    0.82407    0.66857    1.000
    C324     C        0.51370    0.93310    0.61860    1.000
    H162     H        0.52836    0.94529    0.60137    1.000
    C325     C        0.46870    0.89600    0.66700    1.000
    H163     H        0.45111    0.88198    0.67957    1.000
    C326     C        0.49010    0.97400    0.62840    1.000
    H164     H        0.48788    0.01116    0.61662    1.000
    C327     C        0.46980    0.95410    0.65780    1.000
    C328     C        0.44010    0.98860    0.66470    1.000
    C329     C        0.42050    0.02200    0.67450    1.000
    C330     C        0.39650    0.06040    0.68840    1.000
    C331     C        0.37820    0.11040    0.65560    1.000
    H165     H        0.38466    0.12206    0.62800    1.000
    C332     C        0.38310    0.04120    0.72630    1.000
    H166     H        0.39047    0.00483    0.74268    1.000
    C333     C        0.34950    0.14480    0.66310    1.000
    H167     H        0.33646    0.17885    0.64060    1.000
    C334     C        0.35920    0.07710    0.73840    1.000
    H168     H        0.35561    0.06733    0.76949    1.000
    C335     C        0.34140    0.12550    0.70560    1.000
    C336     C        0.31460    0.16860    0.71790    1.000
    Gd15     Gd       0.09453    0.26522    0.60022    1.000
    Gd16     Gd       0.25977    0.23483    0.73762    1.000
    O85      O        0.14280    0.32310    0.59080    1.000
    O86      O        0.22720    0.30830    0.65980    1.000
    O87      O        0.15680    0.70250    0.21410    1.000
    O88      O        0.24490    0.69920    0.28560    1.000
    O89      O        0.12720    0.18970    0.67300    1.000
    O90      O        0.21420    0.18140    0.75500    1.000
    O91      O        0.11370    0.79570    0.04870    1.000
    O92      O        0.19680    0.80450    0.13320    1.000
    O93      O        0.05910    0.35620    0.59340    1.000
    O94      O        0.04700    0.28920    0.63300    1.000
    O95      O        0.80330    0.64940    0.75120    1.000
    O96      O        0.80090    0.71600    0.68750    1.000
    C337     C        0.18760    0.33440    0.61550    1.000
    C338     C        0.18920    0.37920    0.57690    1.000
    C339     C        0.19810    0.64930    0.31210    1.000
    C340     C        0.23260    0.38550    0.58670    1.000
    H169     H        0.26102    0.36291    0.61824    1.000
    C341     C        0.15070    0.41660    0.53450    1.000
    H170     H        0.12092    0.41256    0.52712    1.000
    C342     C        0.23440    0.42530    0.54960    1.000
    H171     H        0.26277    0.42531    0.55358    1.000
    C343     C        0.15260    0.45790    0.50350    1.000
    H172     H        0.12605    0.48372    0.47818    1.000
    C344     C        0.19800    0.46360    0.50880    1.000
    C345     C        0.19700    0.50450    0.46980    1.000
    C346     C        0.19980    0.53840    0.43930    1.000
    C347     C        0.24650    0.59170    0.41670    1.000
    H173     H        0.27801    0.57778    0.45604    1.000
    C348     C        0.15560    0.59780    0.34200    1.000
    H174     H        0.12519    0.58900    0.33131    1.000
    C349     C        0.20210    0.57730    0.40160    1.000
    C350     C        0.24390    0.62680    0.37330    1.000
    H175     H        0.27450    0.63661    0.38495    1.000
    C351     C        0.15500    0.63230    0.29770    1.000
    H176     H        0.12341    0.64388    0.25648    1.000
    C352     C        0.19780    0.68780    0.26560    1.000
    C353     C        0.16900    0.16840    0.72870    1.000
    C354     C        0.16320    0.12970    0.76620    1.000
    C355     C        0.20720    0.10750    0.82700    1.000
    H177     H        0.23899    0.11789    0.84239    1.000
    C356     C        0.11940    0.11200    0.74800    1.000
    H178     H        0.08932    0.12615    0.70669    1.000
    C357     C        0.20520    0.06830    0.86720    1.000
    H179     H        0.23449    0.04963    0.90453    1.000
    C358     C        0.11390    0.07720    0.78100    1.000
    H180     H        0.08196    0.06406    0.76293    1.000
    C359     C        0.16230    0.06050    0.85000    1.000
    C360     C        0.15170    0.01750    0.88300    1.000
    C361     C        0.15300    0.98620    0.91970    1.000
    C362     C        0.15510    0.94410    0.96030    1.000
    C363     C        0.19750    0.93190    0.02500    1.000
    H181     H        0.22749    0.95178    0.04600    1.000
    C364     C        0.10920    0.91680    0.93160    1.000
    H182     H        0.07890    0.92674    0.88780    1.000
    C365     C        0.19760    0.89060    0.06200    1.000
    H183     H        0.22837    0.88049    0.10516    1.000
    C366     C        0.10840    0.87560    0.96760    1.000
    H184     H        0.07836    0.85550    0.94627    1.000
    C367     C        0.15230    0.86380    0.03560    1.000
    C368     C        0.15200    0.81950    0.07210    1.000
    C369     C        0.03870    0.33460    0.61520    1.000
    C370     C        0.01690    0.37980    0.63130    1.000
    C371     C        0.99420    0.36150    0.65700    1.000
    H185     H        0.99691    0.32407    0.66857    1.000
    C372     C        0.01370    0.43310    0.61860    1.000
    H186     H        0.02836    0.44529    0.60137    1.000
    C373     C        0.96870    0.39600    0.66700    1.000
    H187     H        0.95111    0.38198    0.67957    1.000
    C374     C        0.99010    0.47400    0.62840    1.000
    H188     H        0.98788    0.51116    0.61662    1.000
    C375     C        0.96980    0.45410    0.65780    1.000
    C376     C        0.94010    0.48860    0.66470    1.000
    C377     C        0.92050    0.52200    0.67450    1.000
    C378     C        0.89650    0.56040    0.68840    1.000
    C379     C        0.87820    0.61040    0.65560    1.000
    H189     H        0.88466    0.62206    0.62800    1.000
    C380     C        0.88310    0.54120    0.72630    1.000
    H190     H        0.89047    0.50483    0.74268    1.000
    C381     C        0.84950    0.64480    0.66310    1.000
    H191     H        0.83646    0.67885    0.64060    1.000
    C382     C        0.85920    0.57710    0.73840    1.000
    H192     H        0.85561    0.56733    0.76949    1.000
    C383     C        0.84140    0.62550    0.70560    1.000
    C384     C        0.81460    0.66860    0.71790    1.000
