# CIF file generated by openbabel 3.1.0, see https://openbabel.org
data_I
_chemical_name_common 'image0'
_cell_length_a 8.7999
_cell_length_b 10.8475
_cell_length_c 16.8132
_cell_angle_alpha 76.6
_cell_angle_beta 82.105
_cell_angle_gamma 90.135
_space_group_name_H-M_alt 'P 1'
_space_group_name_Hall 'P 1'
loop_
    _symmetry_equiv_pos_as_xyz
    x,y,z
loop_
    _atom_site_label
    _atom_site_type_symbol
    _atom_site_fract_x
    _atom_site_fract_y
    _atom_site_fract_z
    _atom_site_occupancy
    Cd1      Cd       0.27796    0.73983    0.75806    1.000
    Cd2      Cd       0.96744    0.28609    0.75479    1.000
    O1       O        0.02190    0.20990    0.89190    1.000
    O2       O        0.00680    0.06680    0.82020    1.000
    O3       O        0.14450    0.58810    0.85700    1.000
    O4       O        0.23210    0.70660    0.93120    1.000
    O5       O        0.17820    0.66980    0.65500    1.000
    O6       O        0.33920    0.82960    0.60700    1.000
    O7       O        0.09270    0.57920    0.38050    1.000
    O8       O        0.07710    0.78600    0.36170    1.000
    N1       N        0.22420    0.33670    0.70810    1.000
    N2       N        0.52170    0.65030    0.75510    1.000
    H1       H        0.55400    0.66900    0.70330    1.000
    N3       N        0.42970    0.88660    0.79810    1.000
    H2       H        0.39900    0.86500    0.85060    1.000
    N4       N        0.71350    0.22750    0.81550    1.000
    C1       C        0.30290    0.39360    0.75310    1.000
    H3       H        0.25720    0.39740    0.80570    1.000
    C2       C        0.44910    0.44700    0.72510    1.000
    C3       C        0.51520    0.43910    0.64780    1.000
    H4       H        0.61300    0.47440    0.62660    1.000
    C4       C        0.43720    0.37940    0.60200    1.000
    H5       H        0.48210    0.37250    0.54990    1.000
    C5       C        0.29360    0.33010    0.63290    1.000
    H6       H        0.24120    0.29030    0.60090    1.000
    C6       C        0.52920    0.51080    0.78080    1.000
    H7       H        0.48050    0.48160    0.83750    1.000
    H8       H        0.63570    0.48720    0.77810    1.000
    C7       C        0.60710    0.71270    0.80540    1.000
    H9       H        0.71480    0.69320    0.79660    1.000
    H10      H        0.56860    0.67990    0.86340    1.000
    C8       C        0.59140    0.85280    0.78340    1.000
    H11      H        0.65100    0.89140    0.81630    1.000
    H12      H        0.63190    0.88590    0.72570    1.000
    C9       C        0.40360    0.02220    0.77150    1.000
    H13      H        0.29450    0.03580    0.78210    1.000
    H14      H        0.43560    0.04950    0.71240    1.000
    C10      C        0.62660    0.16090    0.77860    1.000
    H15      H        0.66350    0.15440    0.72520    1.000
    C11      C        0.48850    0.10260    0.81440    1.000
    C12      C        0.43380    0.11480    0.89470    1.000
    H16      H        0.34050    0.07630    0.92190    1.000
    C13      C        0.51900    0.18380    0.93260    1.000
    H17      H        0.48290    0.19450    0.98510    1.000
    C14      C        0.65970    0.23740    0.89160    1.000
    H18      H        0.71850    0.28190    0.91830    1.000
    C15      C        0.01580    0.09660    0.88680    1.000
    C16      C        0.01300    0.99180    0.96230    1.000
    H19      H        0.03060    0.91020    0.95540    1.000
    C17      C        0.14720    0.62000    0.92400    1.000
    C18      C        0.03910    0.55170    0.99790    1.000
    H20      H        0.02720    0.58590    0.04410    1.000
    C19      C        0.24330    0.75190    0.59680    1.000
    C20      C        0.20590    0.76000    0.51200    1.000
    H21      H        0.23280    0.83470    0.47220    1.000
    C21      C        0.13800    0.66920    0.49060    1.000
    H22      H        0.11080    0.59450    0.53040    1.000
    C22      C        0.10080    0.67780    0.40550    1.000
    Cd3      Cd       0.72204    0.26017    0.24194    1.000
    Cd4      Cd       0.03256    0.71391    0.24521    1.000
    O9       O        0.97810    0.79010    0.10810    1.000
    O10      O        0.99320    0.93320    0.17980    1.000
    O11      O        0.85550    0.41190    0.14300    1.000
    O12      O        0.76790    0.29340    0.06880    1.000
    O13      O        0.82180    0.33020    0.34500    1.000
    O14      O        0.66080    0.17040    0.39300    1.000
    O15      O        0.90730    0.42080    0.61950    1.000
    O16      O        0.92290    0.21400    0.63830    1.000
    N5       N        0.77580    0.66330    0.29190    1.000
    N6       N        0.47830    0.34970    0.24490    1.000
    H23      H        0.44600    0.33100    0.29670    1.000
    N7       N        0.57030    0.11340    0.20190    1.000
    H24      H        0.60100    0.13500    0.14940    1.000
    N8       N        0.28650    0.77250    0.18450    1.000
    C23      C        0.69710    0.60640    0.24690    1.000
    H25      H        0.74280    0.60260    0.19430    1.000
    C24      C        0.55090    0.55300    0.27490    1.000
    C25      C        0.48480    0.56090    0.35220    1.000
    H26      H        0.38700    0.52560    0.37340    1.000
    C26      C        0.56280    0.62060    0.39800    1.000
    H27      H        0.51790    0.62750    0.45010    1.000
    C27      C        0.70640    0.66990    0.36710    1.000
    H28      H        0.75880    0.70970    0.39910    1.000
    C28      C        0.47080    0.48920    0.21920    1.000
    H29      H        0.51950    0.51840    0.16250    1.000
    H30      H        0.36430    0.51280    0.22190    1.000
    C29      C        0.39290    0.28730    0.19460    1.000
    H31      H        0.28520    0.30680    0.20340    1.000
    H32      H        0.43140    0.32010    0.13660    1.000
    C30      C        0.40860    0.14720    0.21660    1.000
    H33      H        0.34900    0.10860    0.18370    1.000
    H34      H        0.36810    0.11410    0.27430    1.000
    C31      C        0.59640    0.97780    0.22850    1.000
    H35      H        0.70550    0.96420    0.21790    1.000
    H36      H        0.56440    0.95050    0.28760    1.000
    C32      C        0.37340    0.83910    0.22140    1.000
    H37      H        0.33650    0.84560    0.27480    1.000
    C33      C        0.51150    0.89740    0.18560    1.000
    C34      C        0.56620    0.88520    0.10530    1.000
    H38      H        0.65950    0.92370    0.07810    1.000
    C35      C        0.48100    0.81620    0.06740    1.000
    H39      H        0.51710    0.80550    0.01490    1.000
    C36      C        0.34030    0.76260    0.10840    1.000
    H40      H        0.28150    0.71810    0.08170    1.000
    C37      C        0.98420    0.90340    0.11320    1.000
    C38      C        0.98700    0.00820    0.03770    1.000
    H41      H        0.96940    0.08980    0.04460    1.000
    C39      C        0.85280    0.38000    0.07600    1.000
    C40      C        0.96090    0.44830    0.00210    1.000
    H42      H        0.97280    0.41410    0.95590    1.000
    C41      C        0.75670    0.24810    0.40320    1.000
    C42      C        0.79410    0.24000    0.48800    1.000
    H43      H        0.76720    0.16530    0.52780    1.000
    C43      C        0.86200    0.33080    0.50940    1.000
    H44      H        0.88920    0.40550    0.46960    1.000
    C44      C        0.89920    0.32220    0.59450    1.000
