# CIF file generated by openbabel 3.1.0, see https://openbabel.org
data_I
_chemical_name_common 'image0'
_cell_length_a 20.435
_cell_length_b 20.435
_cell_length_c 20.435
_cell_angle_alpha 90
_cell_angle_beta 90
_cell_angle_gamma 90
_space_group_name_H-M_alt 'P 1'
_space_group_name_Hall 'P 1'
loop_
    _symmetry_equiv_pos_as_xyz
    x,y,z
loop_
    _atom_site_label
    _atom_site_type_symbol
    _atom_site_fract_x
    _atom_site_fract_y
    _atom_site_fract_z
    _atom_site_occupancy
    Nd1      Nd       0.25768    0.35613    0.01998    1.000
    O1       O        0.35550    0.30280    0.06460    1.000
    O2       O        0.42310    0.21810    0.08010    1.000
    O3       O        0.12330    0.21140    0.91480    1.000
    O4       O        0.16800    0.29710    0.96620    1.000
    N1       N        0.26940    0.23080    0.00450    1.000
    C1       C        0.37060    0.24260    0.05990    1.000
    C2       C        0.32210    0.19870    0.02700    1.000
    C3       C        0.32880    0.13230    0.02280    1.000
    C4       C        0.28010    0.09590    0.99260    1.000
    C5       C        0.22560    0.12870    0.96860    1.000
    C6       C        0.22160    0.19590    0.97470    1.000
    C7       C        0.16630    0.23690    0.94980    1.000
    Nd2      Nd       0.24232    0.64387    0.51998    1.000
    O5       O        0.14450    0.69720    0.56460    1.000
    O6       O        0.07690    0.78190    0.58010    1.000
    O7       O        0.37670    0.78860    0.41480    1.000
    O8       O        0.33200    0.70290    0.46620    1.000
    N2       N        0.23060    0.76920    0.50450    1.000
    C8       C        0.12940    0.75740    0.55990    1.000
    C9       C        0.17790    0.80130    0.52700    1.000
    C10      C        0.17120    0.86770    0.52280    1.000
    C11      C        0.21990    0.90410    0.49260    1.000
    C12      C        0.27440    0.87130    0.46860    1.000
    C13      C        0.27840    0.80410    0.47470    1.000
    C14      C        0.33370    0.76310    0.44980    1.000
    Nd3      Nd       0.74232    0.85613    0.48002    1.000
    O9       O        0.64450    0.80280    0.43540    1.000
    O10      O        0.57690    0.71810    0.41990    1.000
    O11      O        0.87670    0.71140    0.58520    1.000
    O12      O        0.83200    0.79710    0.53380    1.000
    N3       N        0.73060    0.73080    0.49550    1.000
    C15      C        0.62940    0.74260    0.44010    1.000
    C16      C        0.67790    0.69870    0.47300    1.000
    C17      C        0.67120    0.63230    0.47720    1.000
    C18      C        0.71990    0.59590    0.50740    1.000
    C19      C        0.77440    0.62870    0.53140    1.000
    C20      C        0.77840    0.69590    0.52530    1.000
    C21      C        0.83370    0.73690    0.55020    1.000
    Nd4      Nd       0.75768    0.14387    0.98002    1.000
    O13      O        0.85550    0.19720    0.93540    1.000
    O14      O        0.92310    0.28190    0.91990    1.000
    O15      O        0.62330    0.28860    0.08520    1.000
    O16      O        0.66800    0.20290    0.03380    1.000
    N4       N        0.76940    0.26920    0.99550    1.000
    C22      C        0.87060    0.25740    0.94010    1.000
    C23      C        0.82210    0.30130    0.97300    1.000
    C24      C        0.82880    0.36770    0.97720    1.000
    C25      C        0.78010    0.40410    0.00740    1.000
    C26      C        0.72560    0.37130    0.03140    1.000
    C27      C        0.72160    0.30410    0.02530    1.000
    C28      C        0.66630    0.26310    0.05020    1.000
    Nd5      Nd       0.01998    0.25768    0.35613    1.000
    O17      O        0.06460    0.35550    0.30280    1.000
    O18      O        0.08010    0.42310    0.21810    1.000
    O19      O        0.91480    0.12330    0.21140    1.000
    O20      O        0.96620    0.16800    0.29710    1.000
    N5       N        0.00450    0.26940    0.23080    1.000
    C29      C        0.05990    0.37060    0.24260    1.000
    C30      C        0.02700    0.32210    0.19870    1.000
    C31      C        0.02280    0.32880    0.13230    1.000
    C32      C        0.99260    0.28010    0.09590    1.000
    C33      C        0.96860    0.22560    0.12870    1.000
    C34      C        0.97470    0.22160    0.19590    1.000
    C35      C        0.94980    0.16630    0.23690    1.000
    Nd6      Nd       0.51998    0.24232    0.64387    1.000
    O21      O        0.56460    0.14450    0.69720    1.000
    O22      O        0.58010    0.07690    0.78190    1.000
    O23      O        0.41480    0.37670    0.78860    1.000
    O24      O        0.46620    0.33200    0.70290    1.000
    N6       N        0.50450    0.23060    0.76920    1.000
    C36      C        0.55990    0.12940    0.75740    1.000
    C37      C        0.52700    0.17790    0.80130    1.000
    C38      C        0.52280    0.17120    0.86770    1.000
    C39      C        0.49260    0.21990    0.90410    1.000
    C40      C        0.46860    0.27440    0.87130    1.000
    C41      C        0.47470    0.27840    0.80410    1.000
    C42      C        0.44980    0.33370    0.76310    1.000
    Nd7      Nd       0.48002    0.74232    0.85613    1.000
    O25      O        0.43540    0.64450    0.80280    1.000
    O26      O        0.41990    0.57690    0.71810    1.000
    O27      O        0.58520    0.87670    0.71140    1.000
    O28      O        0.53380    0.83200    0.79710    1.000
    N7       N        0.49550    0.73060    0.73080    1.000
    C43      C        0.44010    0.62940    0.74260    1.000
    C44      C        0.47300    0.67790    0.69870    1.000
    C45      C        0.47720    0.67120    0.63230    1.000
    C46      C        0.50740    0.71990    0.59590    1.000
    C47      C        0.53140    0.77440    0.62870    1.000
    C48      C        0.52530    0.77840    0.69590    1.000
    C49      C        0.55020    0.83370    0.73690    1.000
    Nd8      Nd       0.98002    0.75768    0.14387    1.000
    O29      O        0.93540    0.85550    0.19720    1.000
    O30      O        0.91990    0.92310    0.28190    1.000
    O31      O        0.08520    0.62330    0.28860    1.000
    O32      O        0.03380    0.66800    0.20290    1.000
    N8       N        0.99550    0.76940    0.26920    1.000
    C50      C        0.94010    0.87060    0.25740    1.000
    C51      C        0.97300    0.82210    0.30130    1.000
    C52      C        0.97720    0.82880    0.36770    1.000
    C53      C        0.00740    0.78010    0.40410    1.000
    C54      C        0.03140    0.72560    0.37130    1.000
    C55      C        0.02530    0.72160    0.30410    1.000
    C56      C        0.05020    0.66630    0.26310    1.000
    Nd9      Nd       0.35613    0.01998    0.25768    1.000
    O33      O        0.30280    0.06460    0.35550    1.000
    O34      O        0.21810    0.08010    0.42310    1.000
    O35      O        0.21140    0.91480    0.12330    1.000
    O36      O        0.29710    0.96620    0.16800    1.000
    N9       N        0.23080    0.00450    0.26940    1.000
    C57      C        0.24260    0.05990    0.37060    1.000
    C58      C        0.19870    0.02700    0.32210    1.000
    C59      C        0.13230    0.02280    0.32880    1.000
    C60      C        0.09590    0.99260    0.28010    1.000
    C61      C        0.12870    0.96860    0.22560    1.000
    C62      C        0.19590    0.97470    0.22160    1.000
    C63      C        0.23690    0.94980    0.16630    1.000
    Nd10     Nd       0.64387    0.51998    0.24232    1.000
    O37      O        0.69720    0.56460    0.14450    1.000
    O38      O        0.78190    0.58010    0.07690    1.000
    O39      O        0.78860    0.41480    0.37670    1.000
    O40      O        0.70290    0.46620    0.33200    1.000
    N10      N        0.76920    0.50450    0.23060    1.000
    C64      C        0.75740    0.55990    0.12940    1.000
    C65      C        0.80130    0.52700    0.17790    1.000
    C66      C        0.86770    0.52280    0.17120    1.000
    C67      C        0.90410    0.49260    0.21990    1.000
    C68      C        0.87130    0.46860    0.27440    1.000
    C69      C        0.80410    0.47470    0.27840    1.000
    C70      C        0.76310    0.44980    0.33370    1.000
    Nd11     Nd       0.85613    0.48002    0.74232    1.000
    O41      O        0.80280    0.43540    0.64450    1.000
    O42      O        0.71810    0.41990    0.57690    1.000
    O43      O        0.71140    0.58520    0.87670    1.000
    O44      O        0.79710    0.53380    0.83200    1.000
    N11      N        0.73080    0.49550    0.73060    1.000
    C71      C        0.74260    0.44010    0.62940    1.000
    C72      C        0.69870    0.47300    0.67790    1.000
    C73      C        0.63230    0.47720    0.67120    1.000
    C74      C        0.59590    0.50740    0.71990    1.000
    C75      C        0.62870    0.53140    0.77440    1.000
    C76      C        0.69590    0.52530    0.77840    1.000
    C77      C        0.73690    0.55020    0.83370    1.000
    Nd12     Nd       0.14387    0.98002    0.75768    1.000
    O45      O        0.19720    0.93540    0.85550    1.000
    O46      O        0.28190    0.91990    0.92310    1.000
    O47      O        0.28860    0.08520    0.62330    1.000
    O48      O        0.20290    0.03380    0.66800    1.000
    N12      N        0.26920    0.99550    0.76940    1.000
    C78      C        0.25740    0.94010    0.87060    1.000
    C79      C        0.30130    0.97300    0.82210    1.000
    C80      C        0.36770    0.97720    0.82880    1.000
    C81      C        0.40410    0.00740    0.78010    1.000
    C82      C        0.37130    0.03140    0.72560    1.000
    C83      C        0.30410    0.02530    0.72160    1.000
    C84      C        0.26310    0.05020    0.66630    1.000
    Nd13     Nd       0.74232    0.64387    0.98002    1.000
    O49      O        0.64450    0.69720    0.93540    1.000
    O50      O        0.57690    0.78190    0.91990    1.000
    O51      O        0.87670    0.78860    0.08520    1.000
    O52      O        0.83200    0.70290    0.03380    1.000
    N13      N        0.73060    0.76920    0.99550    1.000
    C85      C        0.62940    0.75740    0.94010    1.000
    C86      C        0.67790    0.80130    0.97300    1.000
    C87      C        0.67120    0.86770    0.97720    1.000
    C88      C        0.71990    0.90410    0.00740    1.000
    C89      C        0.77440    0.87130    0.03140    1.000
    C90      C        0.77840    0.80410    0.02530    1.000
    C91      C        0.83370    0.76310    0.05020    1.000
    Nd14     Nd       0.75768    0.35613    0.48002    1.000
    O53      O        0.85550    0.30280    0.43540    1.000
    O54      O        0.92310    0.21810    0.41990    1.000
    O55      O        0.62330    0.21140    0.58520    1.000
    O56      O        0.66800    0.29710    0.53380    1.000
    N14      N        0.76940    0.23080    0.49550    1.000
    C92      C        0.87060    0.24260    0.44010    1.000
    C93      C        0.82210    0.19870    0.47300    1.000
    C94      C        0.82880    0.13230    0.47720    1.000
    C95      C        0.78010    0.09590    0.50740    1.000
    C96      C        0.72560    0.12870    0.53140    1.000
    C97      C        0.72160    0.19590    0.52530    1.000
    C98      C        0.66630    0.23690    0.55020    1.000
    Nd15     Nd       0.25768    0.14387    0.51998    1.000
    O57      O        0.35550    0.19720    0.56460    1.000
    O58      O        0.42310    0.28190    0.58010    1.000
    O59      O        0.12330    0.28860    0.41480    1.000
    O60      O        0.16800    0.20290    0.46620    1.000
    N15      N        0.26940    0.26920    0.50450    1.000
    C99      C        0.37060    0.25740    0.55990    1.000
    C100     C        0.32210    0.30130    0.52700    1.000
    C101     C        0.32880    0.36770    0.52280    1.000
    C102     C        0.28010    0.40410    0.49260    1.000
    C103     C        0.22560    0.37130    0.46860    1.000
    C104     C        0.22160    0.30410    0.47470    1.000
    C105     C        0.16630    0.26310    0.44980    1.000
    Nd16     Nd       0.24232    0.85613    0.01998    1.000
    O61      O        0.14450    0.80280    0.06460    1.000
    O62      O        0.07690    0.71810    0.08010    1.000
    O63      O        0.37670    0.71140    0.91480    1.000
    O64      O        0.33200    0.79710    0.96620    1.000
    N16      N        0.23060    0.73080    0.00450    1.000
    C106     C        0.12940    0.74260    0.05990    1.000
    C107     C        0.17790    0.69870    0.02700    1.000
    C108     C        0.17120    0.63230    0.02280    1.000
    C109     C        0.21990    0.59590    0.99260    1.000
    C110     C        0.27440    0.62870    0.96860    1.000
    C111     C        0.27840    0.69590    0.97470    1.000
    C112     C        0.33370    0.73690    0.94980    1.000
    Nd17     Nd       0.98002    0.74232    0.64387    1.000
    O65      O        0.93540    0.64450    0.69720    1.000
    O66      O        0.91990    0.57690    0.78190    1.000
    O67      O        0.08520    0.87670    0.78860    1.000
    O68      O        0.03380    0.83200    0.70290    1.000
    N17      N        0.99550    0.73060    0.76920    1.000
    C113     C        0.94010    0.62940    0.75740    1.000
    C114     C        0.97300    0.67790    0.80130    1.000
    C115     C        0.97720    0.67120    0.86770    1.000
    C116     C        0.00740    0.71990    0.90410    1.000
    C117     C        0.03140    0.77440    0.87130    1.000
    C118     C        0.02530    0.77840    0.80410    1.000
    C119     C        0.05020    0.83370    0.76310    1.000
    Nd18     Nd       0.48002    0.75768    0.35613    1.000
    O69      O        0.43540    0.85550    0.30280    1.000
    O70      O        0.41990    0.92310    0.21810    1.000
    O71      O        0.58520    0.62330    0.21140    1.000
    O72      O        0.53380    0.66800    0.29710    1.000
    N18      N        0.49550    0.76940    0.23080    1.000
    C120     C        0.44010    0.87060    0.24260    1.000
    C121     C        0.47300    0.82210    0.19870    1.000
    C122     C        0.47720    0.82880    0.13230    1.000
    C123     C        0.50740    0.78010    0.09590    1.000
    C124     C        0.53140    0.72560    0.12870    1.000
    C125     C        0.52530    0.72160    0.19590    1.000
    C126     C        0.55020    0.66630    0.23690    1.000
    Nd19     Nd       0.51998    0.25768    0.14387    1.000
    O73      O        0.56460    0.35550    0.19720    1.000
    O74      O        0.58010    0.42310    0.28190    1.000
    O75      O        0.41480    0.12330    0.28860    1.000
    O76      O        0.46620    0.16800    0.20290    1.000
    N19      N        0.50450    0.26940    0.26920    1.000
    C127     C        0.55990    0.37060    0.25740    1.000
    C128     C        0.52700    0.32210    0.30130    1.000
    C129     C        0.52280    0.32880    0.36770    1.000
    C130     C        0.49260    0.28010    0.40410    1.000
    C131     C        0.46860    0.22560    0.37130    1.000
    C132     C        0.47470    0.22160    0.30410    1.000
    C133     C        0.44980    0.16630    0.26310    1.000
    Nd20     Nd       0.01998    0.24232    0.85613    1.000
    O77      O        0.06460    0.14450    0.80280    1.000
    O78      O        0.08010    0.07690    0.71810    1.000
    O79      O        0.91480    0.37670    0.71140    1.000
    O80      O        0.96620    0.33200    0.79710    1.000
    N20      N        0.00450    0.23060    0.73080    1.000
    C134     C        0.05990    0.12940    0.74260    1.000
    C135     C        0.02700    0.17790    0.69870    1.000
    C136     C        0.02280    0.17120    0.63230    1.000
    C137     C        0.99260    0.21990    0.59590    1.000
    C138     C        0.96860    0.27440    0.62870    1.000
    C139     C        0.97470    0.27840    0.69590    1.000
    C140     C        0.94980    0.33370    0.73690    1.000
    Nd21     Nd       0.64387    0.98002    0.74232    1.000
    O81      O        0.69720    0.93540    0.64450    1.000
    O82      O        0.78190    0.91990    0.57690    1.000
    O83      O        0.78860    0.08520    0.87670    1.000
    O84      O        0.70290    0.03380    0.83200    1.000
    N21      N        0.76920    0.99550    0.73060    1.000
    C141     C        0.75740    0.94010    0.62940    1.000
    C142     C        0.80130    0.97300    0.67790    1.000
    C143     C        0.86770    0.97720    0.67120    1.000
    C144     C        0.90410    0.00740    0.71990    1.000
    C145     C        0.87130    0.03140    0.77440    1.000
    C146     C        0.80410    0.02530    0.77840    1.000
    C147     C        0.76310    0.05020    0.83370    1.000
    Nd22     Nd       0.35613    0.48002    0.75768    1.000
    O85      O        0.30280    0.43540    0.85550    1.000
    O86      O        0.21810    0.41990    0.92310    1.000
    O87      O        0.21140    0.58520    0.62330    1.000
    O88      O        0.29710    0.53380    0.66800    1.000
    N22      N        0.23080    0.49550    0.76940    1.000
    C148     C        0.24260    0.44010    0.87060    1.000
    C149     C        0.19870    0.47300    0.82210    1.000
    C150     C        0.13230    0.47720    0.82880    1.000
    C151     C        0.09590    0.50740    0.78010    1.000
    C152     C        0.12870    0.53140    0.72560    1.000
    C153     C        0.19590    0.52530    0.72160    1.000
    C154     C        0.23690    0.55020    0.66630    1.000
    Nd23     Nd       0.14387    0.51998    0.25768    1.000
    O89      O        0.19720    0.56460    0.35550    1.000
    O90      O        0.28190    0.58010    0.42310    1.000
    O91      O        0.28860    0.41480    0.12330    1.000
    O92      O        0.20290    0.46620    0.16800    1.000
    N23      N        0.26920    0.50450    0.26940    1.000
    C155     C        0.25740    0.55990    0.37060    1.000
    C156     C        0.30130    0.52700    0.32210    1.000
    C157     C        0.36770    0.52280    0.32880    1.000
    C158     C        0.40410    0.49260    0.28010    1.000
    C159     C        0.37130    0.46860    0.22560    1.000
    C160     C        0.30410    0.47470    0.22160    1.000
    C161     C        0.26310    0.44980    0.16630    1.000
    Nd24     Nd       0.85613    0.01998    0.24232    1.000
    O93      O        0.80280    0.06460    0.14450    1.000
    O94      O        0.71810    0.08010    0.07690    1.000
    O95      O        0.71140    0.91480    0.37670    1.000
    O96      O        0.79710    0.96620    0.33200    1.000
    N24      N        0.73080    0.00450    0.23060    1.000
    C162     C        0.74260    0.05990    0.12940    1.000
    C163     C        0.69870    0.02700    0.17790    1.000
    C164     C        0.63230    0.02280    0.17120    1.000
    C165     C        0.59590    0.99260    0.21990    1.000
    C166     C        0.62870    0.96860    0.27440    1.000
    C167     C        0.69590    0.97470    0.27840    1.000
    C168     C        0.73690    0.94980    0.33370    1.000
