# CIF file generated by openbabel 3.1.0, see https://openbabel.org
data_I
_chemical_name_common 'image0'
_cell_length_a 7.2094
_cell_length_b 22.652
_cell_length_c 10.6553
_cell_angle_alpha 90
_cell_angle_beta 90.554
_cell_angle_gamma 90
_space_group_name_H-M_alt 'P 1'
_space_group_name_Hall 'P 1'
loop_
    _symmetry_equiv_pos_as_xyz
    x,y,z
loop_
    _atom_site_label
    _atom_site_type_symbol
    _atom_site_fract_x
    _atom_site_fract_y
    _atom_site_fract_z
    _atom_site_occupancy
    Sm1      Sm       0.26141    0.25076    0.85258    1.000
    Sb1      Sb       0.45956    0.98823    0.12384    1.000
    Sb2      Sb       0.56900    0.48338    0.60413    1.000
    N1       N        0.19890    0.04779    0.12010    1.000
    N2       N        0.22100    0.92110    0.15420    1.000
    N3       N        0.80520    0.41621    0.63690    1.000
    N4       N        0.83160    0.54247    0.60270    1.000
    O1       O        0.38160    0.00311    0.32110    1.000
    O2       O        0.26450    0.06937    0.45300    1.000
    O3       O        0.52330    0.08573    0.02170    1.000
    O4       O        0.38800    0.16009    0.92060    1.000
    O5       O        0.57650    0.88709    0.18180    1.000
    O6       O        0.50320    0.80759    0.29450    1.000
    O7       O        0.35710    0.97058    0.94060    1.000
    O8       O        0.20480    0.90840    0.81390    1.000
    O9       O        0.44970    0.38274    0.66260    1.000
    O10      O        0.51940    0.30662    0.78720    1.000
    O11      O        0.67340    0.46581    0.42130    1.000
    O12      O        0.82180    0.40410    0.29640    1.000
    O13      O        0.64690    0.50063    0.80240    1.000
    O14      O        0.76420    0.56742    0.93240    1.000
    O15      O        0.50720    0.57926    0.50250    1.000
    O16      O        0.63770    0.65490    0.40240    1.000
    C1       C        0.21030    0.08470    0.23620    1.000
    H1       H        0.28970    0.11950    0.21980    1.000
    H2       H        0.08470    0.09920    0.25670    1.000
    C2       C        0.28850    0.05120    0.34800    1.000
    C3       C        0.19430    0.08730    0.00880    1.000
    H3       H        0.15140    0.06460    0.93470    1.000
    H4       H        0.10430    0.11950    0.02340    1.000
    C4       C        0.38180    0.11360    0.98220    1.000
    C5       C        0.03090    0.00920    0.11700    1.000
    H5       H        0.00460    0.99750    0.02910    1.000
    H6       H        0.92330    0.03210    0.14730    1.000
    C6       C        0.05120    0.95530    0.19430    1.000
    H7       H        0.06340    0.96630    0.28390    1.000
    H8       H        0.93950    0.93030    0.18430    1.000
    C7       C        0.26830    0.87750    0.25310    1.000
    H9       H        0.25440    0.89610    0.33660    1.000
    H10      H        0.18100    0.84380    0.24790    1.000
    C8       C        0.46290    0.85520    0.23980    1.000
    C9       C        0.19240    0.88960    0.03230    1.000
    H11      H        0.26320    0.85220    0.03450    1.000
    H12      H        0.05940    0.87960    0.02310    1.000
    C10      C        0.25140    0.92480    0.91860    1.000
    C11      C        0.75900    0.37270    0.73570    1.000
    H13      H        0.78090    0.39080    0.81910    1.000
    H14      H        0.84220    0.33820    0.72830    1.000
    C12      C        0.56050    0.35230    0.72640    1.000
    C13      C        0.83250    0.38460    0.51500    1.000
    H15      H        0.76030    0.34740    0.51610    1.000
    H16      H        0.96520    0.37400    0.50720    1.000
    C14      C        0.77460    0.42020    0.40190    1.000
    C15      C        0.97630    0.44890    0.67680    1.000
    H17      H        0.08620    0.42320    0.66650    1.000
    H18      H        0.96750    0.45960    0.76660    1.000
    C16      C        0.99910    0.50480    0.59800    1.000
    H19      H        0.10740    0.52740    0.62960    1.000
    H20      H        0.02340    0.49360    0.50980    1.000
    C17      C        0.82350    0.58010    0.71800    1.000
    H21      H        0.74670    0.61540    0.70010    1.000
    H22      H        0.95030    0.59370    0.73990    1.000
    C18      C        0.74340    0.54740    0.82830    1.000
    C19      C        0.83600    0.58180    0.49170    1.000
    H23      H        0.87810    0.55910    0.41790    1.000
    H24      H        0.92610    0.61400    0.50700    1.000
    C20      C        0.64780    0.60800    0.46380    1.000
    Sm2      Sm       0.76141    0.74924    0.35258    1.000
    Sb3      Sb       0.95956    0.01177    0.62384    1.000
    Sb4      Sb       0.06900    0.51662    0.10413    1.000
    N5       N        0.69890    0.95221    0.62010    1.000
    N6       N        0.72100    0.07890    0.65420    1.000
    N7       N        0.30520    0.58379    0.13690    1.000
    N8       N        0.33160    0.45753    0.10270    1.000
    O17      O        0.88160    0.99689    0.82110    1.000
    O18      O        0.76450    0.93063    0.95300    1.000
    O19      O        0.02330    0.91427    0.52170    1.000
    O20      O        0.88800    0.83991    0.42060    1.000
    O21      O        0.07650    0.11291    0.68180    1.000
    O22      O        0.00320    0.19241    0.79450    1.000
    O23      O        0.85710    0.02942    0.44060    1.000
    O24      O        0.70480    0.09160    0.31390    1.000
    O25      O        0.94970    0.61726    0.16260    1.000
    O26      O        0.01940    0.69338    0.28720    1.000
    O27      O        0.17340    0.53419    0.92130    1.000
    O28      O        0.32180    0.59590    0.79640    1.000
    O29      O        0.14690    0.49937    0.30240    1.000
    O30      O        0.26420    0.43258    0.43240    1.000
    O31      O        0.00720    0.42074    0.00250    1.000
    O32      O        0.13770    0.34510    0.90240    1.000
    C21      C        0.71030    0.91530    0.73620    1.000
    H25      H        0.78970    0.88050    0.71980    1.000
    H26      H        0.58470    0.90080    0.75670    1.000
    C22      C        0.78850    0.94880    0.84800    1.000
    C23      C        0.69430    0.91270    0.50880    1.000
    H27      H        0.65140    0.93540    0.43470    1.000
    H28      H        0.60430    0.88050    0.52340    1.000
    C24      C        0.88180    0.88640    0.48220    1.000
    C25      C        0.53090    0.99080    0.61700    1.000
    H29      H        0.50460    0.00250    0.52910    1.000
    H30      H        0.42330    0.96790    0.64730    1.000
    C26      C        0.55120    0.04470    0.69430    1.000
    H31      H        0.56340    0.03370    0.78390    1.000
    H32      H        0.43950    0.06970    0.68430    1.000
    C27      C        0.76830    0.12250    0.75310    1.000
    H33      H        0.75440    0.10390    0.83660    1.000
    H34      H        0.68100    0.15620    0.74790    1.000
    C28      C        0.96290    0.14480    0.73980    1.000
    C29      C        0.69240    0.11040    0.53230    1.000
    H35      H        0.76320    0.14780    0.53450    1.000
    H36      H        0.55940    0.12040    0.52310    1.000
    C30      C        0.75140    0.07520    0.41860    1.000
    C31      C        0.25900    0.62730    0.23570    1.000
    H37      H        0.28090    0.60920    0.31910    1.000
    H38      H        0.34220    0.66180    0.22830    1.000
    C32      C        0.06050    0.64770    0.22640    1.000
    C33      C        0.33250    0.61540    0.01500    1.000
    H39      H        0.26030    0.65260    0.01610    1.000
    H40      H        0.46520    0.62600    0.00720    1.000
    C34      C        0.27460    0.57980    0.90190    1.000
    C35      C        0.47630    0.55110    0.17680    1.000
    H41      H        0.58620    0.57680    0.16650    1.000
    H42      H        0.46750    0.54040    0.26660    1.000
    C36      C        0.49910    0.49520    0.09800    1.000
    H43      H        0.60740    0.47260    0.12960    1.000
    H44      H        0.52340    0.50640    0.00980    1.000
    C37      C        0.32350    0.41990    0.21800    1.000
    H45      H        0.24670    0.38460    0.20010    1.000
    H46      H        0.45030    0.40630    0.23990    1.000
    C38      C        0.24340    0.45260    0.32830    1.000
    C39      C        0.33600    0.41820    0.99170    1.000
    H47      H        0.37810    0.44090    0.91790    1.000
    H48      H        0.42610    0.38600    0.00700    1.000
    C40      C        0.14780    0.39200    0.96380    1.000
