# CIF file generated by openbabel 3.1.0, see https://openbabel.org
data_I
_chemical_name_common 'image0'
_cell_length_a 10.3332
_cell_length_b 11.7635
_cell_length_c 20.4524
_cell_angle_alpha 90
_cell_angle_beta 90
_cell_angle_gamma 90
_space_group_name_H-M_alt 'P 1'
_space_group_name_Hall 'P 1'
loop_
    _symmetry_equiv_pos_as_xyz
    x,y,z
loop_
    _atom_site_label
    _atom_site_type_symbol
    _atom_site_fract_x
    _atom_site_fract_y
    _atom_site_fract_z
    _atom_site_occupancy
    Zn1      Zn       0.45083    0.42233    0.00975    1.000
    Zn2      Zn       0.13842    0.32406    0.00750    1.000
    O1       O        0.33690    0.27260    0.00390    1.000
    O2       O        0.45540    0.11810    0.98250    1.000
    O3       O        0.11600    0.16000    0.99090    1.000
    C1       C        0.35060    0.16950    0.98650    1.000
    C2       C        0.22760    0.10530    0.96690    1.000
    H1       H        0.23140    0.02650    0.98520    1.000
    C3       C        0.22390    0.09830    0.89220    1.000
    H2       H        0.16790    0.03520    0.87880    1.000
    H3       H        0.31160    0.08550    0.87550    1.000
    H4       H        0.18990    0.16960    0.87440    1.000
    O4       O        0.36770    0.46150    0.09350    1.000
    O5       O        0.17060    0.38060    0.09810    1.000
    C4       C        0.26650    0.43150    0.12270    1.000
    C5       C        0.25840    0.46180    0.19400    1.000
    C6       C        0.17670    0.40010    0.23520    1.000
    H5       H        0.12470    0.34030    0.21840    1.000
    C7       C        0.17280    0.42770    0.30110    1.000
    H6       H        0.11900    0.38490    0.32960    1.000
    C8       C        0.24550    0.51600    0.32610    1.000
    C9       C        0.32700    0.57590    0.28510    1.000
    H7       H        0.37910    0.63550    0.30210    1.000
    C10      C        0.33300    0.54940    0.21890    1.000
    H8       H        0.38840    0.59140    0.19080    1.000
    C11      C        0.23560    0.54840    0.39780    1.000
    O6       O        0.13000    0.52650    0.42530    1.000
    O7       O        0.33500    0.59090    0.42350    1.000
    Zn3      Zn       0.04917    0.57767    0.50975    1.000
    Zn4      Zn       0.36158    0.67594    0.50750    1.000
    O8       O        0.16310    0.72740    0.50390    1.000
    O9       O        0.04460    0.88190    0.48250    1.000
    O10      O        0.38400    0.84000    0.49090    1.000
    C12      C        0.14940    0.83050    0.48650    1.000
    C13      C        0.27240    0.89470    0.46690    1.000
    H9       H        0.26860    0.97350    0.48520    1.000
    C14      C        0.27610    0.90170    0.39220    1.000
    H10      H        0.33210    0.96480    0.37880    1.000
    H11      H        0.18840    0.91450    0.37550    1.000
    H12      H        0.31010    0.83040    0.37440    1.000
    O11      O        0.13230    0.53850    0.59350    1.000
    O12      O        0.32940    0.61940    0.59810    1.000
    C15      C        0.23350    0.56850    0.62270    1.000
    C16      C        0.24160    0.53820    0.69400    1.000
    C17      C        0.32330    0.59990    0.73520    1.000
    H13      H        0.37530    0.65970    0.71840    1.000
    C18      C        0.32720    0.57230    0.80110    1.000
    H14      H        0.38100    0.61510    0.82960    1.000
    C19      C        0.25450    0.48400    0.82610    1.000
    C20      C        0.17300    0.42410    0.78510    1.000
    H15      H        0.12090    0.36450    0.80210    1.000
    C21      C        0.16700    0.45060    0.71890    1.000
    H16      H        0.11160    0.40860    0.69080    1.000
    C22      C        0.26440    0.45160    0.89780    1.000
    O13      O        0.37000    0.47350    0.92530    1.000
    O14      O        0.16500    0.40910    0.92350    1.000
    Zn5      Zn       0.54917    0.92233    0.49025    1.000
    Zn6      Zn       0.86158    0.82406    0.49250    1.000
    O15      O        0.66310    0.77260    0.49610    1.000
    O16      O        0.54460    0.61810    0.51750    1.000
    O17      O        0.88400    0.66000    0.50910    1.000
    C23      C        0.64940    0.66950    0.51350    1.000
    C24      C        0.77240    0.60530    0.53310    1.000
    H17      H        0.76860    0.52650    0.51480    1.000
    C25      C        0.77610    0.59830    0.60780    1.000
    H18      H        0.83210    0.53520    0.62120    1.000
    H19      H        0.68840    0.58550    0.62450    1.000
    H20      H        0.81010    0.66960    0.62560    1.000
    O18      O        0.63230    0.96150    0.40650    1.000
    O19      O        0.82940    0.88060    0.40190    1.000
    C26      C        0.73350    0.93150    0.37730    1.000
    C27      C        0.74160    0.96180    0.30600    1.000
    C28      C        0.82330    0.90010    0.26480    1.000
    H21      H        0.87530    0.84030    0.28160    1.000
    C29      C        0.82720    0.92770    0.19890    1.000
    H22      H        0.88100    0.88490    0.17040    1.000
    C30      C        0.75450    0.01600    0.17390    1.000
    C31      C        0.67300    0.07590    0.21490    1.000
    H23      H        0.62090    0.13550    0.19790    1.000
    C32      C        0.66700    0.04940    0.28110    1.000
    H24      H        0.61160    0.09140    0.30920    1.000
    C33      C        0.76440    0.04840    0.10220    1.000
    O20      O        0.87000    0.02650    0.07470    1.000
    O21      O        0.66500    0.09090    0.07650    1.000
    Zn7      Zn       0.95083    0.07767    0.99025    1.000
    Zn8      Zn       0.63842    0.17594    0.99250    1.000
    O22      O        0.83690    0.22740    0.99610    1.000
    O23      O        0.95540    0.38190    0.01750    1.000
    O24      O        0.61600    0.34000    0.00910    1.000
    C34      C        0.85060    0.33050    0.01350    1.000
    C35      C        0.72760    0.39470    0.03310    1.000
    H25      H        0.73140    0.47350    0.01480    1.000
    C36      C        0.72390    0.40170    0.10780    1.000
    H26      H        0.66790    0.46480    0.12120    1.000
    H27      H        0.81160    0.41450    0.12450    1.000
    H28      H        0.68990    0.33040    0.12560    1.000
    O25      O        0.86770    0.03850    0.90650    1.000
    O26      O        0.67060    0.11940    0.90190    1.000
    C37      C        0.76650    0.06850    0.87730    1.000
    C38      C        0.75840    0.03820    0.80600    1.000
    C39      C        0.67670    0.09990    0.76480    1.000
    H29      H        0.62470    0.15970    0.78160    1.000
    C40      C        0.67280    0.07230    0.69890    1.000
    H30      H        0.61900    0.11510    0.67040    1.000
    C41      C        0.74550    0.98400    0.67390    1.000
    C42      C        0.82700    0.92410    0.71490    1.000
    H31      H        0.87910    0.86450    0.69790    1.000
    C43      C        0.83300    0.95060    0.78110    1.000
    H32      H        0.88840    0.90860    0.80920    1.000
    C44      C        0.73560    0.95160    0.60220    1.000
    O27      O        0.63000    0.97350    0.57470    1.000
    O28      O        0.83500    0.90910    0.57650    1.000
