# CIF file generated by openbabel 3.1.0, see https://openbabel.org
data_I
_chemical_name_common 'image0'
_cell_length_a 13.821
_cell_length_b 32.91
_cell_length_c 14.903
_cell_angle_alpha 90
_cell_angle_beta 112.939
_cell_angle_gamma 90
_space_group_name_H-M_alt 'P 1'
_space_group_name_Hall 'P 1'
loop_
    _symmetry_equiv_pos_as_xyz
    x,y,z
loop_
    _atom_site_label
    _atom_site_type_symbol
    _atom_site_fract_x
    _atom_site_fract_y
    _atom_site_fract_z
    _atom_site_occupancy
    C1       C        0.13490    0.88684    0.36350    1.000
    H1       H        0.17120    0.88130    0.42940    1.000
    C2       C        0.12540    0.85622    0.29820    1.000
    H2       H        0.15430    0.83080    0.32010    1.000
    C3       C        0.07240    0.86341    0.19930    1.000
    C4       C        0.02950    0.90152    0.17220    1.000
    H3       H        0.99170    0.90760    0.10680    1.000
    C5       C        0.04310    0.93065    0.24310    1.000
    H4       H        0.01430    0.95630    0.22320    1.000
    C6       C        0.06550    0.83124    0.12570    1.000
    C7       C        0.15540    0.80887    0.13850    1.000
    H5       H        0.21640    0.81350    0.19330    1.000
    C8       C        0.15570    0.77969    0.07090    1.000
    C9       C        0.06200    0.77276    0.98990    1.000
    H6       H        0.05980    0.75340    0.94380    1.000
    C10      C        0.97310    0.79472    0.97860    1.000
    C11      C        0.97250    0.82440    0.04390    1.000
    H7       H        0.91220    0.83940    0.03390    1.000
    C12      C        0.25490    0.75747    0.08420    1.000
    C13      C        0.33900    0.75516    0.17380    1.000
    H8       H        0.33280    0.76620    0.22880    1.000
    C14      C        0.43200    0.73650    0.18190    1.000
    H9       H        0.48680    0.73560    0.24300    1.000
    C15      C        0.36540    0.72108    0.02100    1.000
    H10      H        0.37340    0.70910    0.96770    1.000
    C16      C        0.26890    0.73923    0.00640    1.000
    H11      H        0.21460    0.73900    0.94500    1.000
    C17      C        0.81440    0.81094    0.83790    1.000
    C18      C        0.85110    0.84570    0.81020    1.000
    H12      H        0.92240    0.85190    0.83700    1.000
    C19      C        0.78010    0.87160    0.74120    1.000
    C20      C        0.67200    0.86200    0.70400    1.000
    H13      H        0.62430    0.87950    0.65940    1.000
    C21      C        0.63540    0.82719    0.73250    1.000
    C22      C        0.70750    0.80063    0.79980    1.000
    H14      H        0.68470    0.77670    0.81870    1.000
    C23      C        0.81560    0.90874    0.70630    1.000
    C24      C        0.91780    0.91413    0.71270    1.000
    H15      H        0.96860    0.89470    0.74400    1.000
    C25      C        0.94480    0.94824    0.67290    1.000
    H16      H        0.01390    0.95100    0.67840    1.000
    C26      C        0.77670    0.97312    0.62280    1.000
    H17      H        0.72790    0.99330    0.59270    1.000
    C27      C        0.51970    0.81936    0.69670    1.000
    C28      C        0.47390    0.78186    0.66440    1.000
    H18      H        0.51490    0.75980    0.66220    1.000
    C29      C        0.36540    0.77755    0.63510    1.000
    H19      H        0.33590    0.75230    0.61230    1.000
    C30      C        0.34630    0.84365    0.66770    1.000
    H20      H        0.30380    0.86530    0.66960    1.000
    C31      C        0.45260    0.85079    0.69580    1.000
    H21      H        0.47920    0.87680    0.71420    1.000
    C32      C        0.28060    0.95198    0.62850    1.000
    C33      C        0.38400    0.95183    0.71710    1.000
    C34      C        0.47330    0.96813    0.70980    1.000
    H22      H        0.46950    0.97820    0.65030    1.000
    C35      C        0.56900    0.96963    0.79080    1.000
    H23      H        0.62750    0.98140    0.78510    1.000
    C36      C        0.57700    0.95357    0.87940    1.000
    C37      C        0.48740    0.93626    0.88540    1.000
    H24      H        0.49190    0.92470    0.94390    1.000
    C38      C        0.39180    0.93583    0.80600    1.000
    H25      H        0.33280    0.92480    0.81240    1.000
    C39      C        0.67980    0.95451    0.97360    1.000
    C40      C        0.66680    0.98915    0.03820    1.000
    C41      C        0.77910    0.96447    0.95260    1.000
    C42      C        0.69780    0.91290    0.02500    1.000
    C43      C        0.72880    0.90828    0.12570    1.000
    H26      H        0.74770    0.93090    0.16620    1.000
    C44      C        0.73140    0.86989    0.16530    1.000
    H27      H        0.75200    0.86700    0.23230    1.000
    C45      C        0.70370    0.83585    0.10620    1.000
    C46      C        0.68000    0.84023    0.00750    1.000
    H28      H        0.66600    0.81730    0.96790    1.000
    C47      C        0.67690    0.87795    0.96730    1.000
    H29      H        0.66070    0.88030    0.90080    1.000
    C48      C        0.69300    0.79515    0.14810    1.000
    Cd1      Cd       0.10376    0.96889    0.46706    1.000
    Cd2      Cd       0.62151    0.70067    0.12565    1.000
    F1       F        0.63400    0.02344    0.98730    1.000
    F2       F        0.75610    0.99828    0.11460    1.000
    F3       F        0.59500    0.97931    0.07410    1.000
    F4       F        0.77930    0.00179    0.91890    1.000
    F5       F        0.86770    0.96111    0.03340    1.000
    F6       F        0.78840    0.93854    0.88790    1.000
    N1       N        0.09510    0.92419    0.33820    1.000
    N2       N        0.44710    0.71985    0.10720    1.000
    N3       N        0.87560    0.97733    0.62690    1.000
    N4       N        0.30090    0.80760    0.63800    1.000
    O1       O        0.28070    0.96710    0.55180    1.000
    O2       O        0.19990    0.93861    0.63490    1.000
    O3       O        0.64050    0.76810    0.08890    1.000
    O4       O        0.73680    0.79085    0.23770    1.000
    O5       O        0.87970    0.78244    0.90130    1.000
    C49      C        0.74580    0.94047    0.66100    1.000
    H30      H        0.67710    0.93920    0.65700    1.000
    C50      C        0.36510    0.38684    0.13650    1.000
    H31      H        0.32880    0.38130    0.07060    1.000
    C51      C        0.37460    0.35622    0.20180    1.000
    H32      H        0.34570    0.33080    0.17990    1.000
    C52      C        0.42760    0.36341    0.30070    1.000
    C53      C        0.47050    0.40152    0.32780    1.000
    H33      H        0.50830    0.40760    0.39320    1.000
    C54      C        0.45690    0.43065    0.25690    1.000
    H34      H        0.48570    0.45630    0.27680    1.000
    C55      C        0.43450    0.33124    0.37430    1.000
    C56      C        0.34460    0.30887    0.36150    1.000
    H35      H        0.28360    0.31350    0.30670    1.000
    C57      C        0.34430    0.27969    0.42910    1.000
    C58      C        0.43800    0.27276    0.51010    1.000
    H36      H        0.44020    0.25340    0.55620    1.000
    C59      C        0.52690    0.29472    0.52140    1.000
    C60      C        0.52750    0.32440    0.45610    1.000
    H37      H        0.58780    0.33940    0.46610    1.000
    C61      C        0.24510    0.25747    0.41580    1.000
    C62      C        0.16100    0.25516    0.32620    1.000
    H38      H        0.16720    0.26620    0.27120    1.000
    C63      C        0.06800    0.23650    0.31810    1.000
    H39      H        0.01320    0.23560    0.25700    1.000
    C64      C        0.13460    0.22108    0.47900    1.000
    H40      H        0.12660    0.20910    0.53230    1.000
    C65      C        0.23110    0.23923    0.49360    1.000
    H41      H        0.28540    0.23900    0.55500    1.000
    C66      C        0.68560    0.31094    0.66210    1.000
    C67      C        0.64890    0.34570    0.68980    1.000
    H42      H        0.57760    0.35190    0.66300    1.000
    C68      C        0.71990    0.37160    0.75880    1.000
    C69      C        0.82800    0.36200    0.79600    1.000
    H43      H        0.87570    0.37950    0.84060    1.000
    C70      C        0.86460    0.32719    0.76750    1.000
    C71      C        0.79250    0.30063    0.70020    1.000
    H44      H        0.81530    0.27670    0.68130    1.000
    C72      C        0.68440    0.40874    0.79370    1.000
    C73      C        0.58220    0.41413    0.78730    1.000
    H45      H        0.53140    0.39470    0.75600    1.000
    C74      C        0.55520    0.44824    0.82710    1.000
    H46      H        0.48610    0.45100    0.82160    1.000
    C75      C        0.72330    0.47312    0.87720    1.000
    H47      H        0.77210    0.49330    0.90730    1.000
    C76      C        0.98030    0.31936    0.80330    1.000
    C77      C        0.02610    0.28186    0.83560    1.000
    H48      H        0.98510    0.25980    0.83780    1.000
    C78      C        0.13460    0.27755    0.86490    1.000
    H49      H        0.16410    0.25230    0.88770    1.000
    C79      C        0.15370    0.34365    0.83230    1.000
    H50      H        0.19620    0.36530    0.83040    1.000
    C80      C        0.04740    0.35079    0.80420    1.000
    H51      H        0.02080    0.37680    0.78580    1.000
    C81      C        0.21940    0.45198    0.87150    1.000
    C82      C        0.11600    0.45183    0.78290    1.000
    C83      C        0.02670    0.46813    0.79020    1.000
    H52      H        0.03050    0.47820    0.84970    1.000
    C84      C        0.93100    0.46963    0.70920    1.000
    H53      H        0.87250    0.48140    0.71490    1.000
    C85      C        0.92300    0.45357    0.62060    1.000
    C86      C        0.01260    0.43626    0.61460    1.000
    H54      H        0.00810    0.42470    0.55610    1.000
    C87      C        0.10820    0.43583    0.69400    1.000
    H55      H        0.16720    0.42480    0.68760    1.000
    C88      C        0.82020    0.45451    0.52640    1.000
    C89      C        0.83320    0.48915    0.46180    1.000
    C90      C        0.72090    0.46447    0.54740    1.000
    C91      C        0.80220    0.41290    0.47500    1.000
    C92      C        0.77120    0.40828    0.37430    1.000
    H56      H        0.75230    0.43090    0.33380    1.000
    C93      C        0.76860    0.36989    0.33470    1.000
    H57      H        0.74800    0.36700    0.26770    1.000
    C94      C        0.79630    0.33585    0.39380    1.000
    C95      C        0.82000    0.34023    0.49250    1.000
    H58      H        0.83400    0.31730    0.53210    1.000
    C96      C        0.82310    0.37795    0.53270    1.000
    H59      H        0.83930    0.38030    0.59920    1.000
    C97      C        0.80700    0.29515    0.35190    1.000
    Cd3      Cd       0.39624    0.46889    0.03294    1.000
    Cd4      Cd       0.87849    0.20067    0.37435    1.000
    F7       F        0.86600    0.52344    0.51270    1.000
    F8       F        0.74390    0.49828    0.38540    1.000
    F9       F        0.90500    0.47931    0.42590    1.000
    F10      F        0.72070    0.50179    0.58110    1.000
    F11      F        0.63230    0.46111    0.46660    1.000
    F12      F        0.71160    0.43854    0.61210    1.000
    N5       N        0.40490    0.42419    0.16180    1.000
    N6       N        0.05290    0.21985    0.39280    1.000
    N7       N        0.62440    0.47733    0.87310    1.000
    N8       N        0.19910    0.30760    0.86200    1.000
    O6       O        0.21930    0.46710    0.94820    1.000
    O7       O        0.30010    0.43861    0.86510    1.000
    O8       O        0.85950    0.26810    0.41110    1.000
    O9       O        0.76320    0.29085    0.26230    1.000
    O10      O        0.62030    0.28244    0.59870    1.000
    C98      C        0.75420    0.44047    0.83900    1.000
    H60      H        0.82290    0.43920    0.84300    1.000
    C99      C        0.86510    0.11316    0.63650    1.000
    H61      H        0.82880    0.11870    0.57060    1.000
    C100     C        0.87460    0.14378    0.70180    1.000
    H62      H        0.84570    0.16920    0.67990    1.000
    C101     C        0.92760    0.13659    0.80070    1.000
    C102     C        0.97050    0.09848    0.82780    1.000
    H63      H        0.00830    0.09240    0.89320    1.000
    C103     C        0.95690    0.06935    0.75690    1.000
    H64      H        0.98570    0.04370    0.77680    1.000
    C104     C        0.93450    0.16876    0.87430    1.000
    C105     C        0.84460    0.19113    0.86150    1.000
    H65      H        0.78360    0.18650    0.80670    1.000
    C106     C        0.84430    0.22031    0.92910    1.000
    C107     C        0.93800    0.22724    0.01010    1.000
    H66      H        0.94020    0.24660    0.05620    1.000
    C108     C        0.02690    0.20528    0.02140    1.000
    C109     C        0.02750    0.17560    0.95610    1.000
    H67      H        0.08780    0.16060    0.96610    1.000
    C110     C        0.74510    0.24253    0.91580    1.000
    C111     C        0.66100    0.24484    0.82620    1.000
    H68      H        0.66720    0.23380    0.77120    1.000
    C112     C        0.56800    0.26350    0.81810    1.000
    H69      H        0.51320    0.26440    0.75700    1.000
    C113     C        0.63460    0.27892    0.97900    1.000
    H70      H        0.62660    0.29090    0.03230    1.000
    C114     C        0.73110    0.26077    0.99360    1.000
    H71      H        0.78540    0.26100    0.05500    1.000
    C115     C        0.18560    0.18906    0.16210    1.000
    C116     C        0.14890    0.15430    0.18980    1.000
    H72      H        0.07760    0.14810    0.16300    1.000
    C117     C        0.21990    0.12840    0.25880    1.000
    C118     C        0.32800    0.13800    0.29600    1.000
    H73      H        0.37570    0.12050    0.34060    1.000
    C119     C        0.36460    0.17281    0.26750    1.000
    C120     C        0.29250    0.19937    0.20020    1.000
    H74      H        0.31530    0.22330    0.18130    1.000
    C121     C        0.18440    0.09126    0.29370    1.000
    C122     C        0.08220    0.08587    0.28730    1.000
    H75      H        0.03140    0.10530    0.25600    1.000
    C123     C        0.05520    0.05176    0.32710    1.000
    H76      H        0.98610    0.04900    0.32160    1.000
    C124     C        0.22330    0.02688    0.37720    1.000
    H77      H        0.27210    0.00670    0.40730    1.000
    C125     C        0.48030    0.18064    0.30330    1.000
    C126     C        0.52610    0.21814    0.33560    1.000
    H78      H        0.48510    0.24020    0.33780    1.000
    C127     C        0.63460    0.22245    0.36490    1.000
    H79      H        0.66410    0.24770    0.38770    1.000
    C128     C        0.65370    0.15635    0.33230    1.000
    H80      H        0.69620    0.13470    0.33040    1.000
    C129     C        0.54740    0.14921    0.30420    1.000
    H81      H        0.52080    0.12320    0.28580    1.000
    C130     C        0.71940    0.04802    0.37150    1.000
    C131     C        0.61600    0.04817    0.28290    1.000
    C132     C        0.52670    0.03187    0.29020    1.000
    H82      H        0.53050    0.02180    0.34970    1.000
    C133     C        0.43100    0.03037    0.20920    1.000
    H83      H        0.37250    0.01860    0.21490    1.000
    C134     C        0.42300    0.04643    0.12060    1.000
    C135     C        0.51260    0.06374    0.11460    1.000
    H84      H        0.50810    0.07530    0.05610    1.000
    C136     C        0.60820    0.06417    0.19400    1.000
    H85      H        0.66720    0.07520    0.18760    1.000
    C137     C        0.32020    0.04549    0.02640    1.000
    C138     C        0.33320    0.01085    0.96180    1.000
    C139     C        0.22090    0.03553    0.04740    1.000
    C140     C        0.30220    0.08710    0.97500    1.000
    C141     C        0.27120    0.09172    0.87430    1.000
    H86      H        0.25230    0.06910    0.83380    1.000
    C142     C        0.26860    0.13011    0.83470    1.000
    H87      H        0.24800    0.13300    0.76770    1.000
    C143     C        0.29630    0.16415    0.89380    1.000
    C144     C        0.32000    0.15977    0.99250    1.000
    H88      H        0.33400    0.18270    0.03210    1.000
    C145     C        0.32310    0.12205    0.03270    1.000
    H89      H        0.33930    0.11970    0.09920    1.000
    C146     C        0.30700    0.20485    0.85190    1.000
    Cd5      Cd       0.89624    0.03111    0.53294    1.000
    Cd6      Cd       0.37849    0.29933    0.87435    1.000
    F13      F        0.36600    0.97656    0.01270    1.000
    F14      F        0.24390    0.00172    0.88540    1.000
    F15      F        0.40500    0.02069    0.92590    1.000
    F16      F        0.22070    0.99821    0.08110    1.000
    F17      F        0.13230    0.03889    0.96660    1.000
    F18      F        0.21160    0.06146    0.11210    1.000
    N9       N        0.90490    0.07581    0.66180    1.000
    N10      N        0.55290    0.28015    0.89280    1.000
    N11      N        0.12440    0.02267    0.37310    1.000
    N12      N        0.69910    0.19240    0.36200    1.000
    O11      O        0.71930    0.03290    0.44820    1.000
    O12      O        0.80010    0.06139    0.36510    1.000
    O13      O        0.35950    0.23190    0.91110    1.000
    O14      O        0.26320    0.20915    0.76230    1.000
    O15      O        0.12030    0.21756    0.09870    1.000
    C147     C        0.25420    0.05953    0.33900    1.000
    H90      H        0.32290    0.06080    0.34300    1.000
    C148     C        0.63490    0.61316    0.86350    1.000
    H91      H        0.67120    0.61870    0.92940    1.000
    C149     C        0.62540    0.64378    0.79820    1.000
    H92      H        0.65430    0.66920    0.82010    1.000
    C150     C        0.57240    0.63659    0.69930    1.000
    C151     C        0.52950    0.59848    0.67220    1.000
    H93      H        0.49170    0.59240    0.60680    1.000
    C152     C        0.54310    0.56935    0.74310    1.000
    H94      H        0.51430    0.54370    0.72320    1.000
    C153     C        0.56550    0.66876    0.62570    1.000
    C154     C        0.65540    0.69113    0.63850    1.000
    H95      H        0.71640    0.68650    0.69330    1.000
    C155     C        0.65570    0.72031    0.57090    1.000
    C156     C        0.56200    0.72724    0.48990    1.000
    H96      H        0.55980    0.74660    0.44380    1.000
    C157     C        0.47310    0.70528    0.47860    1.000
    C158     C        0.47250    0.67560    0.54390    1.000
    H97      H        0.41220    0.66060    0.53390    1.000
    C159     C        0.75490    0.74253    0.58420    1.000
    C160     C        0.83900    0.74484    0.67380    1.000
    H98      H        0.83280    0.73380    0.72880    1.000
    C161     C        0.93200    0.76350    0.68190    1.000
    H99      H        0.98680    0.76440    0.74300    1.000
    C162     C        0.86540    0.77892    0.52100    1.000
    H100     H        0.87340    0.79090    0.46770    1.000
    C163     C        0.76890    0.76077    0.50640    1.000
    H101     H        0.71460    0.76100    0.44500    1.000
    C164     C        0.31440    0.68906    0.33790    1.000
    C165     C        0.35110    0.65430    0.31020    1.000
    H102     H        0.42240    0.64810    0.33700    1.000
    C166     C        0.28010    0.62840    0.24120    1.000
    C167     C        0.17200    0.63800    0.20400    1.000
    H103     H        0.12430    0.62050    0.15940    1.000
    C168     C        0.13540    0.67281    0.23250    1.000
    C169     C        0.20750    0.69937    0.29980    1.000
    H104     H        0.18470    0.72330    0.31870    1.000
    C170     C        0.31560    0.59126    0.20630    1.000
    C171     C        0.41780    0.58587    0.21270    1.000
    H105     H        0.46860    0.60530    0.24400    1.000
    C172     C        0.44480    0.55176    0.17290    1.000
    H106     H        0.51390    0.54900    0.17840    1.000
    C173     C        0.27670    0.52688    0.12280    1.000
    H107     H        0.22790    0.50670    0.09270    1.000
    C174     C        0.01970    0.68064    0.19670    1.000
    C175     C        0.97390    0.71814    0.16440    1.000
    H108     H        0.01490    0.74020    0.16220    1.000
    C176     C        0.86540    0.72245    0.13510    1.000
    H109     H        0.83590    0.74770    0.11230    1.000
    C177     C        0.84630    0.65635    0.16770    1.000
    H110     H        0.80380    0.63470    0.16960    1.000
    C178     C        0.95260    0.64921    0.19580    1.000
    H111     H        0.97920    0.62320    0.21420    1.000
    C179     C        0.78060    0.54802    0.12850    1.000
    C180     C        0.88400    0.54817    0.21710    1.000
    C181     C        0.97330    0.53187    0.20980    1.000
    H112     H        0.96950    0.52180    0.15030    1.000
    C182     C        0.06900    0.53037    0.29080    1.000
    H113     H        0.12750    0.51860    0.28510    1.000
    C183     C        0.07700    0.54643    0.37940    1.000
    C184     C        0.98740    0.56374    0.38540    1.000
    H114     H        0.99190    0.57530    0.44390    1.000
    C185     C        0.89180    0.56417    0.30600    1.000
    H115     H        0.83280    0.57520    0.31240    1.000
    C186     C        0.17980    0.54549    0.47360    1.000
    C187     C        0.16680    0.51085    0.53820    1.000
    C188     C        0.27910    0.53553    0.45260    1.000
    C189     C        0.19780    0.58710    0.52500    1.000
    C190     C        0.22880    0.59172    0.62570    1.000
    H116     H        0.24770    0.56910    0.66620    1.000
    C191     C        0.23140    0.63011    0.66530    1.000
    H117     H        0.25200    0.63300    0.73230    1.000
    C192     C        0.20370    0.66415    0.60620    1.000
    C193     C        0.18000    0.65977    0.50750    1.000
    H118     H        0.16600    0.68270    0.46790    1.000
    C194     C        0.17690    0.62205    0.46730    1.000
    H119     H        0.16070    0.61970    0.40080    1.000
    C195     C        0.19300    0.70485    0.64810    1.000
    Cd7      Cd       0.60376    0.53111    0.96706    1.000
    Cd8      Cd       0.12151    0.79933    0.62565    1.000
    F19      F        0.13400    0.47656    0.48730    1.000
    F20      F        0.25610    0.50172    0.61460    1.000
    F21      F        0.09500    0.52069    0.57410    1.000
    F22      F        0.27930    0.49821    0.41890    1.000
    F23      F        0.36770    0.53889    0.53340    1.000
    F24      F        0.28840    0.56146    0.38790    1.000
    N13      N        0.59510    0.57581    0.83820    1.000
    N14      N        0.94710    0.78015    0.60720    1.000
    N15      N        0.37560    0.52267    0.12690    1.000
    N16      N        0.80090    0.69240    0.13800    1.000
    O16      O        0.78070    0.53290    0.05180    1.000
    O17      O        0.69990    0.56139    0.13490    1.000
    O18      O        0.14050    0.73190    0.58890    1.000
    O19      O        0.23680    0.70915    0.73770    1.000
    O20      O        0.37970    0.71756    0.40130    1.000
    C196     C        0.24580    0.55953    0.16100    1.000
    H120     H        0.17710    0.56080    0.15700    1.000
