# CIF file generated by openbabel 3.1.0, see https://openbabel.org
data_I
_chemical_name_common 'image0'
_cell_length_a 28.044
_cell_length_b 9.6262
_cell_length_c 8.2546
_cell_angle_alpha 90
_cell_angle_beta 90
_cell_angle_gamma 90
_space_group_name_H-M_alt 'P 1'
_space_group_name_Hall 'P 1'
loop_
    _symmetry_equiv_pos_as_xyz
    x,y,z
loop_
    _atom_site_label
    _atom_site_type_symbol
    _atom_site_fract_x
    _atom_site_fract_y
    _atom_site_fract_z
    _atom_site_occupancy
    Eu1      Eu       0.99623    0.41456    0.90702    1.000
    O1       O        0.07212    0.47520    0.00050    1.000
    O2       O        0.06308    0.61050    0.21430    1.000
    O3       O        0.45088    0.88580    0.96560    1.000
    O4       O        0.45931    0.79580    0.21110    1.000
    O5       O        0.22818    0.77700    0.35010    1.000
    O6       O        0.30042    0.56220    0.31610    1.000
    O7       O        0.97706    0.41210    0.21260    1.000
    O8       O        0.92638    0.30480    0.05230    1.000
    C1       C        0.08804    0.55590    0.10600    1.000
    C2       C        0.13999    0.59170    0.10330    1.000
    C3       C        0.16841    0.55480    0.97250    1.000
    H1       H        0.15580    0.50450    0.88650    1.000
    C4       C        0.21595    0.59430    0.97240    1.000
    H2       H        0.23490    0.57040    0.88430    1.000
    C5       C        0.23611    0.66770    0.09860    1.000
    C6       C        0.20689    0.70210    0.23170    1.000
    C7       C        0.15893    0.66590    0.23360    1.000
    H3       H        0.13970    0.69090    0.32060    1.000
    C8       C        0.28735    0.70800    0.09670    1.000
    C9       C        0.30460    0.79350    0.97840    1.000
    H4       H        0.28380    0.82730    0.90000    1.000
    C10      C        0.35242    0.83160    0.97160    1.000
    H5       H        0.36340    0.88940    0.88940    1.000
    C11      C        0.38329    0.78250    0.08830    1.000
    C12      C        0.36676    0.69300    0.20690    1.000
    H6       H        0.38760    0.65860    0.28480    1.000
    C13      C        0.31911    0.65470    0.20950    1.000
    C14      C        0.43480    0.82470    0.08790    1.000
    C15      C        0.20600    0.78320    0.50380    1.000
    H7       H        0.22480    0.83960    0.57530    1.000
    H8       H        0.20330    0.69110    0.54750    1.000
    H9       H        0.17480    0.82310    0.49280    1.000
    C16      C        0.32740    0.51610    0.44440    1.000
    H10      H        0.30890    0.45290    0.50870    1.000
    H11      H        0.33690    0.59390    0.50960    1.000
    H12      H        0.35520    0.46940    0.40430    1.000
    C17      C        0.93970    0.34190    0.18740    1.000
    H13      H        0.92110    0.31690    0.27620    1.000
    Eu2      Eu       0.00377    0.58544    0.40702    1.000
    O9       O        0.92788    0.52480    0.50050    1.000
    O10      O        0.93692    0.38950    0.71430    1.000
    O11      O        0.54912    0.11420    0.46560    1.000
    O12      O        0.54069    0.20420    0.71110    1.000
    O13      O        0.77182    0.22300    0.85010    1.000
    O14      O        0.69958    0.43780    0.81610    1.000
    O15      O        0.02294    0.58790    0.71260    1.000
    O16      O        0.07362    0.69520    0.55230    1.000
    C18      C        0.91196    0.44410    0.60600    1.000
    C19      C        0.86001    0.40830    0.60330    1.000
    C20      C        0.83159    0.44520    0.47250    1.000
    H14      H        0.84420    0.49550    0.38650    1.000
    C21      C        0.78405    0.40570    0.47240    1.000
    H15      H        0.76510    0.42960    0.38430    1.000
    C22      C        0.76389    0.33230    0.59860    1.000
    C23      C        0.79311    0.29790    0.73170    1.000
    C24      C        0.84107    0.33410    0.73360    1.000
    H16      H        0.86030    0.30910    0.82060    1.000
    C25      C        0.71265    0.29200    0.59670    1.000
    C26      C        0.69540    0.20650    0.47840    1.000
    H17      H        0.71620    0.17270    0.40000    1.000
    C27      C        0.64758    0.16840    0.47160    1.000
    H18      H        0.63660    0.11060    0.38940    1.000
    C28      C        0.61671    0.21750    0.58830    1.000
    C29      C        0.63324    0.30700    0.70690    1.000
    H19      H        0.61240    0.34140    0.78480    1.000
    C30      C        0.68089    0.34530    0.70950    1.000
    C31      C        0.56520    0.17530    0.58790    1.000
    C32      C        0.79400    0.21680    0.00380    1.000
    H20      H        0.77520    0.16040    0.07530    1.000
    H21      H        0.79670    0.30890    0.04750    1.000
    H22      H        0.82520    0.17690    0.99280    1.000
    C33      C        0.67260    0.48390    0.94440    1.000
    H23      H        0.69110    0.54710    0.00870    1.000
    H24      H        0.66310    0.40610    0.00960    1.000
    H25      H        0.64480    0.53060    0.90430    1.000
    C34      C        0.06030    0.65810    0.68740    1.000
    H26      H        0.07890    0.68310    0.77620    1.000
    Eu3      Eu       0.49623    0.08544    0.90702    1.000
    O17      O        0.57212    0.02480    0.00050    1.000
    O18      O        0.56308    0.88950    0.21430    1.000
    O19      O        0.95088    0.61420    0.96560    1.000
    O20      O        0.95931    0.70420    0.21110    1.000
    O21      O        0.72818    0.72300    0.35010    1.000
    O22      O        0.80042    0.93780    0.31610    1.000
    O23      O        0.47706    0.08790    0.21260    1.000
    O24      O        0.42638    0.19520    0.05230    1.000
    C35      C        0.58804    0.94410    0.10600    1.000
    C36      C        0.63999    0.90830    0.10330    1.000
    C37      C        0.66841    0.94520    0.97250    1.000
    H27      H        0.65580    0.99550    0.88650    1.000
    C38      C        0.71595    0.90570    0.97240    1.000
    H28      H        0.73490    0.92960    0.88430    1.000
    C39      C        0.73611    0.83230    0.09860    1.000
    C40      C        0.70689    0.79790    0.23170    1.000
    C41      C        0.65893    0.83410    0.23360    1.000
    H29      H        0.63970    0.80910    0.32060    1.000
    C42      C        0.78735    0.79200    0.09670    1.000
    C43      C        0.80460    0.70650    0.97840    1.000
    H30      H        0.78380    0.67270    0.90000    1.000
    C44      C        0.85242    0.66840    0.97160    1.000
    H31      H        0.86340    0.61060    0.88940    1.000
    C45      C        0.88329    0.71750    0.08830    1.000
    C46      C        0.86676    0.80700    0.20690    1.000
    H32      H        0.88760    0.84140    0.28480    1.000
    C47      C        0.81911    0.84530    0.20950    1.000
    C48      C        0.93480    0.67530    0.08790    1.000
    C49      C        0.70600    0.71680    0.50380    1.000
    H33      H        0.72480    0.66040    0.57530    1.000
    H34      H        0.70330    0.80890    0.54750    1.000
    H35      H        0.67480    0.67690    0.49280    1.000
    C50      C        0.82740    0.98390    0.44440    1.000
    H36      H        0.80890    0.04710    0.50870    1.000
    H37      H        0.83690    0.90610    0.50960    1.000
    H38      H        0.85520    0.03060    0.40430    1.000
    C51      C        0.43970    0.15810    0.18740    1.000
    H39      H        0.42110    0.18310    0.27620    1.000
    Eu4      Eu       0.50377    0.91456    0.40702    1.000
    O25      O        0.42788    0.97520    0.50050    1.000
    O26      O        0.43692    0.11050    0.71430    1.000
    O27      O        0.04912    0.38580    0.46560    1.000
    O28      O        0.04069    0.29580    0.71110    1.000
    O29      O        0.27182    0.27700    0.85010    1.000
    O30      O        0.19958    0.06220    0.81610    1.000
    O31      O        0.52294    0.91210    0.71260    1.000
    O32      O        0.57362    0.80480    0.55230    1.000
    C52      C        0.41196    0.05590    0.60600    1.000
    C53      C        0.36001    0.09170    0.60330    1.000
    C54      C        0.33159    0.05480    0.47250    1.000
    H40      H        0.34420    0.00450    0.38650    1.000
    C55      C        0.28405    0.09430    0.47240    1.000
    H41      H        0.26510    0.07040    0.38430    1.000
    C56      C        0.26389    0.16770    0.59860    1.000
    C57      C        0.29311    0.20210    0.73170    1.000
    C58      C        0.34107    0.16590    0.73360    1.000
    H42      H        0.36030    0.19090    0.82060    1.000
    C59      C        0.21265    0.20800    0.59670    1.000
    C60      C        0.19540    0.29350    0.47840    1.000
    H43      H        0.21620    0.32730    0.40000    1.000
    C61      C        0.14758    0.33160    0.47160    1.000
    H44      H        0.13660    0.38940    0.38940    1.000
    C62      C        0.11671    0.28250    0.58830    1.000
    C63      C        0.13324    0.19300    0.70690    1.000
    H45      H        0.11240    0.15860    0.78480    1.000
    C64      C        0.18089    0.15470    0.70950    1.000
    C65      C        0.06520    0.32470    0.58790    1.000
    C66      C        0.29400    0.28320    0.00380    1.000
    H46      H        0.27520    0.33960    0.07530    1.000
    H47      H        0.29670    0.19110    0.04750    1.000
    H48      H        0.32520    0.32310    0.99280    1.000
    C67      C        0.17260    0.01610    0.94440    1.000
    H49      H        0.19110    0.95290    0.00870    1.000
    H50      H        0.16310    0.09390    0.00960    1.000
    H51      H        0.14480    0.96940    0.90430    1.000
    C68      C        0.56030    0.84190    0.68740    1.000
    H52      H        0.57890    0.81690    0.77620    1.000
