# CIF file generated by openbabel 3.1.0, see https://openbabel.org
data_I
_chemical_name_common 'image0'
_cell_length_a 10.998
_cell_length_b 11.8
_cell_length_c 12.793
_cell_angle_alpha 70.09
_cell_angle_beta 66.74
_cell_angle_gamma 73.43
_space_group_name_H-M_alt 'P 1'
_space_group_name_Hall 'P 1'
loop_
    _symmetry_equiv_pos_as_xyz
    x,y,z
loop_
    _atom_site_label
    _atom_site_type_symbol
    _atom_site_fract_x
    _atom_site_fract_y
    _atom_site_fract_z
    _atom_site_occupancy
    N1       N        0.20070    0.35310    0.43940    1.000
    N2       N        0.36760    0.21050    0.19210    1.000
    H1       H        0.40390    0.13760    0.18430    1.000
    N3       N        0.11390    0.66380    0.35900    1.000
    N4       N        0.46540    0.70260    0.20910    1.000
    H2       H        0.50940    0.76040    0.16210    1.000
    N5       N        0.92890    0.47970    0.35260    1.000
    N6       N        0.82670    0.24200    0.29540    1.000
    H3       H        0.82340    0.22720    0.23530    1.000
    C1       C        0.23730    0.33130    0.33360    1.000
    H4       H        0.19480    0.38380    0.28040    1.000
    C2       C        0.33570    0.23380    0.30000    1.000
    C3       C        0.39750    0.15770    0.38180    1.000
    H5       H        0.46440    0.09160    0.36340    1.000
    C4       C        0.35940    0.18040    0.48970    1.000
    H6       H        0.40040    0.12980    0.54460    1.000
    C5       C        0.26050    0.27800    0.51630    1.000
    H7       H        0.23470    0.29210    0.59000    1.000
    C6       C        0.34180    0.30430    0.09350    1.000
    H8       H        0.24690    0.33940    0.11630    1.000
    H9       H        0.36110    0.26700    0.03050    1.000
    C7       C        0.42230    0.40630    0.04650    1.000
    C8       C        0.36280    0.52790    0.02770    1.000
    H10      H        0.27010    0.54860    0.04500    1.000
    C9       C        0.56120    0.38040    0.01650    1.000
    H11      H        0.60440    0.29920    0.02640    1.000
    C10      C        0.24800    0.64020    0.32170    1.000
    H12      H        0.29030    0.56140    0.34920    1.000
    C11      C        0.32880    0.72770    0.24330    1.000
    C12      C        0.26230    0.84350    0.20090    1.000
    H13      H        0.31130    0.90430    0.14790    1.000
    C13      C        0.12620    0.86760    0.23690    1.000
    H14      H        0.08150    0.94440    0.20720    1.000
    C14      C        0.05320    0.77700    0.31860    1.000
    H15      H        0.95980    0.79580    0.34560    1.000
    C15      C        0.53870    0.58510    0.24760    1.000
    H16      H        0.63360    0.58620    0.20490    1.000
    H17      H        0.51360    0.52570    0.22630    1.000
    C16      C        0.51850    0.54150    0.37930    1.000
    C17      C        0.50000    0.62130    0.44240    1.000
    H18      H        0.50000    0.70400    0.40460    1.000
    C18      C        0.51870    0.41910    0.43750    1.000
    H19      H        0.53160    0.36310    0.39600    1.000
    C19      C        0.88740    0.37690    0.36810    1.000
    H20      H        0.87070    0.32170    0.44200    1.000
    C20      C        0.86790    0.34850    0.27970    1.000
    C21      C        0.89140    0.43390    0.16970    1.000
    H21      H        0.88040    0.41900    0.10740    1.000
    C22      C        0.93120    0.54010    0.15540    1.000
    H22      H        0.94540    0.59890    0.08350    1.000
    C23      C        0.94970    0.55890    0.24780    1.000
    H23      H        0.97820    0.63060    0.23620    1.000
    C24      C        0.78930    0.15500    0.40770    1.000
    H24      H        0.73990    0.10170    0.40290    1.000
    H25      H        0.72800    0.19930    0.46530    1.000
    C25      C        0.90040    0.07610    0.45310    1.000
    C26      C        0.86870    0.99760    0.56400    1.000
    H26      H        0.77870    0.99540    0.60880    1.000
    C27      C        0.03510    0.07700    0.38960    1.000
    H27      H        0.06040    0.12910    0.31440    1.000
    N7       N        0.79930    0.64690    0.56060    1.000
    N8       N        0.63240    0.78950    0.80790    1.000
    H28      H        0.59610    0.86240    0.81570    1.000
    N9       N        0.88610    0.33620    0.64100    1.000
    N10      N        0.53460    0.29740    0.79090    1.000
    H29      H        0.49060    0.23960    0.83790    1.000
    N11      N        0.07110    0.52030    0.64740    1.000
    N12      N        0.17330    0.75800    0.70460    1.000
    H30      H        0.17660    0.77280    0.76470    1.000
    C28      C        0.76270    0.66870    0.66640    1.000
    H31      H        0.80520    0.61620    0.71960    1.000
    C29      C        0.66430    0.76620    0.70000    1.000
    C30      C        0.60250    0.84230    0.61820    1.000
    H32      H        0.53560    0.90840    0.63660    1.000
    C31      C        0.64060    0.81960    0.51030    1.000
    H33      H        0.59960    0.87020    0.45540    1.000
    C32      C        0.73950    0.72200    0.48370    1.000
    H34      H        0.76530    0.70790    0.41000    1.000
    C33      C        0.65820    0.69570    0.90650    1.000
    H35      H        0.75310    0.66060    0.88370    1.000
    H36      H        0.63890    0.73300    0.96950    1.000
    C34      C        0.57770    0.59370    0.95350    1.000
    C35      C        0.63720    0.47210    0.97230    1.000
    H37      H        0.72990    0.45140    0.95500    1.000
    C36      C        0.43880    0.61960    0.98350    1.000
    H38      H        0.39560    0.70080    0.97360    1.000
    C37      C        0.75200    0.35980    0.67830    1.000
    H39      H        0.70970    0.43860    0.65080    1.000
    C38      C        0.67120    0.27230    0.75670    1.000
    C39      C        0.73770    0.15650    0.79910    1.000
    H40      H        0.68870    0.09570    0.85210    1.000
    C40      C        0.87380    0.13240    0.76310    1.000
    H41      H        0.91850    0.05560    0.79280    1.000
    C41      C        0.94680    0.22300    0.68140    1.000
    H42      H        0.04020    0.20420    0.65440    1.000
    C42      C        0.46130    0.41490    0.75240    1.000
    H43      H        0.36640    0.41380    0.79510    1.000
    H44      H        0.48640    0.47430    0.77370    1.000
    C43      C        0.48150    0.45850    0.62070    1.000
    C44      C        0.50000    0.37870    0.55760    1.000
    H45      H        0.50000    0.29600    0.59540    1.000
    C45      C        0.48130    0.58090    0.56250    1.000
    H46      H        0.46840    0.63690    0.60400    1.000
    C46      C        0.11260    0.62310    0.63190    1.000
    H47      H        0.12930    0.67830    0.55800    1.000
    C47      C        0.13210    0.65150    0.72030    1.000
    C48      C        0.10860    0.56610    0.83030    1.000
    H48      H        0.11960    0.58100    0.89260    1.000
    C49      C        0.06880    0.45990    0.84460    1.000
    H49      H        0.05460    0.40110    0.91650    1.000
    C50      C        0.05030    0.44110    0.75220    1.000
    H50      H        0.02180    0.36940    0.76380    1.000
    C51      C        0.21070    0.84500    0.59230    1.000
    H51      H        0.26010    0.89830    0.59710    1.000
    H52      H        0.27200    0.80070    0.53470    1.000
    C52      C        0.09960    0.92390    0.54690    1.000
    C53      C        0.13130    0.00240    0.43600    1.000
    H53      H        0.22130    0.00460    0.39120    1.000
    C54      C        0.96490    0.92300    0.61040    1.000
    H54      H        0.93960    0.87090    0.68560    1.000
    Cd1      Cd       0.00000    0.50000    0.50000    1.000
