# CIF file generated by openbabel 3.1.0, see https://openbabel.org
data_I
_chemical_name_common 'image0'
_cell_length_a 27.0608
_cell_length_b 27.0608
_cell_length_c 19.406
_cell_angle_alpha 90
_cell_angle_beta 90
_cell_angle_gamma 90
_space_group_name_H-M_alt 'P 1'
_space_group_name_Hall 'P 1'
loop_
    _symmetry_equiv_pos_as_xyz
    x,y,z
loop_
    _atom_site_label
    _atom_site_type_symbol
    _atom_site_fract_x
    _atom_site_fract_y
    _atom_site_fract_z
    _atom_site_occupancy
    C1       C        0.36710    0.10450    0.22790    1.000
    H1       H        0.37560    0.07320    0.21060    1.000
    C2       C        0.19180    0.15760    0.24790    1.000
    H2       H        0.20130    0.13860    0.28630    1.000
    C3       C        0.20090    0.02500    0.17090    1.000
    H3       H        0.17280    0.04540    0.17340    1.000
    C4       C        0.33270    0.14190    0.03580    1.000
    H4       H        0.35860    0.15230    0.06460    1.000
    N1       N        0.32420    0.13000    0.21340    1.000
    N2       N        0.21140    0.15380    0.18320    1.000
    N3       N        0.24880    0.04090    0.16680    1.000
    N4       N        0.28610    0.12330    0.05710    1.000
    Zn1      Zn       0.26787    0.11096    0.15461    1.000
    C5       C        0.21360    0.02550    0.22260    1.000
    H5       H        0.19530    0.04640    0.25160    1.000
    C6       C        0.31580    0.16350    0.03540    1.000
    H6       H        0.33240    0.18600    0.06410    1.000
    C7       C        0.86710    0.60450    0.72790    1.000
    H7       H        0.87560    0.57320    0.71060    1.000
    C8       C        0.69180    0.65760    0.74790    1.000
    H8       H        0.70130    0.63860    0.78630    1.000
    C9       C        0.70090    0.52500    0.67090    1.000
    H9       H        0.67280    0.54540    0.67340    1.000
    C10      C        0.83270    0.64190    0.53580    1.000
    H10      H        0.85860    0.65230    0.56460    1.000
    N5       N        0.82420    0.63000    0.71340    1.000
    N6       N        0.71140    0.65380    0.68320    1.000
    N7       N        0.74880    0.54090    0.66680    1.000
    N8       N        0.78610    0.62330    0.55710    1.000
    Zn2      Zn       0.76787    0.61096    0.65461    1.000
    C11      C        0.71360    0.52550    0.72260    1.000
    H11      H        0.69530    0.54640    0.75160    1.000
    C12      C        0.81580    0.66350    0.53540    1.000
    H12      H        0.83240    0.68600    0.56410    1.000
    C13      C        0.63290    0.89550    0.22790    1.000
    H13      H        0.62440    0.92680    0.21060    1.000
    C14      C        0.80820    0.84240    0.24790    1.000
    H14      H        0.79870    0.86140    0.28630    1.000
    C15      C        0.79910    0.97500    0.17090    1.000
    H15      H        0.82720    0.95460    0.17340    1.000
    C16      C        0.66730    0.85810    0.03580    1.000
    H16      H        0.64140    0.84770    0.06460    1.000
    N9       N        0.67580    0.87000    0.21340    1.000
    N10      N        0.78860    0.84620    0.18320    1.000
    N11      N        0.75120    0.95910    0.16680    1.000
    N12      N        0.71390    0.87670    0.05710    1.000
    Zn3      Zn       0.73213    0.88904    0.15461    1.000
    C17      C        0.78640    0.97450    0.22260    1.000
    H17      H        0.80470    0.95360    0.25160    1.000
    C18      C        0.68420    0.83650    0.03540    1.000
    H18      H        0.66760    0.81400    0.06410    1.000
    C19      C        0.13290    0.39550    0.72790    1.000
    H19      H        0.12440    0.42680    0.71060    1.000
    C20      C        0.30820    0.34240    0.74790    1.000
    H20      H        0.29870    0.36140    0.78630    1.000
    C21      C        0.29910    0.47500    0.67090    1.000
    H21      H        0.32720    0.45460    0.67340    1.000
    C22      C        0.16730    0.35810    0.53580    1.000
    H22      H        0.14140    0.34770    0.56460    1.000
    N13      N        0.17580    0.37000    0.71340    1.000
    N14      N        0.28860    0.34620    0.68320    1.000
    N15      N        0.25120    0.45910    0.66680    1.000
    N16      N        0.21390    0.37670    0.55710    1.000
    Zn4      Zn       0.23213    0.38904    0.65461    1.000
    C23      C        0.28640    0.47450    0.72260    1.000
    H23      H        0.30470    0.45360    0.75160    1.000
    C24      C        0.18420    0.33650    0.53540    1.000
    H24      H        0.16760    0.31400    0.56410    1.000
    C25      C        0.89550    0.36710    0.22790    1.000
    H25      H        0.92680    0.37560    0.21060    1.000
    C26      C        0.84240    0.19180    0.24790    1.000
    H26      H        0.86140    0.20130    0.28630    1.000
    C27      C        0.97500    0.20090    0.17090    1.000
    H27      H        0.95460    0.17280    0.17340    1.000
    C28      C        0.85810    0.33270    0.03580    1.000
    H28      H        0.84770    0.35860    0.06460    1.000
    N17      N        0.87000    0.32420    0.21340    1.000
    N18      N        0.84620    0.21140    0.18320    1.000
    N19      N        0.95910    0.24880    0.16680    1.000
    N20      N        0.87670    0.28610    0.05710    1.000
    Zn5      Zn       0.88904    0.26787    0.15461    1.000
    C29      C        0.97450    0.21360    0.22260    1.000
    H29      H        0.95360    0.19530    0.25160    1.000
    C30      C        0.83650    0.31580    0.03540    1.000
    H30      H        0.81400    0.33240    0.06410    1.000
    C31      C        0.39550    0.86710    0.72790    1.000
    H31      H        0.42680    0.87560    0.71060    1.000
    C32      C        0.34240    0.69180    0.74790    1.000
    H32      H        0.36140    0.70130    0.78630    1.000
    C33      C        0.47500    0.70090    0.67090    1.000
    H33      H        0.45460    0.67280    0.67340    1.000
    C34      C        0.35810    0.83270    0.53580    1.000
    H34      H        0.34770    0.85860    0.56460    1.000
    N21      N        0.37000    0.82420    0.71340    1.000
    N22      N        0.34620    0.71140    0.68320    1.000
    N23      N        0.45910    0.74880    0.66680    1.000
    N24      N        0.37670    0.78610    0.55710    1.000
    Zn6      Zn       0.38904    0.76787    0.65461    1.000
    C35      C        0.47450    0.71360    0.72260    1.000
    H35      H        0.45360    0.69530    0.75160    1.000
    C36      C        0.33650    0.81580    0.53540    1.000
    H36      H        0.31400    0.83240    0.56410    1.000
    C37      C        0.10450    0.63290    0.22790    1.000
    H37      H        0.07320    0.62440    0.21060    1.000
    C38      C        0.15760    0.80820    0.24790    1.000
    H38      H        0.13860    0.79870    0.28630    1.000
    C39      C        0.02500    0.79910    0.17090    1.000
    H39      H        0.04540    0.82720    0.17340    1.000
    C40      C        0.14190    0.66730    0.03580    1.000
    H40      H        0.15230    0.64140    0.06460    1.000
    N25      N        0.13000    0.67580    0.21340    1.000
    N26      N        0.15380    0.78860    0.18320    1.000
    N27      N        0.04090    0.75120    0.16680    1.000
    N28      N        0.12330    0.71390    0.05710    1.000
    Zn7      Zn       0.11096    0.73213    0.15461    1.000
    C41      C        0.02550    0.78640    0.22260    1.000
    H41      H        0.04640    0.80470    0.25160    1.000
    C42      C        0.16350    0.68420    0.03540    1.000
    H42      H        0.18600    0.66760    0.06410    1.000
    C43      C        0.60450    0.13290    0.72790    1.000
    H43      H        0.57320    0.12440    0.71060    1.000
    C44      C        0.65760    0.30820    0.74790    1.000
    H44      H        0.63860    0.29870    0.78630    1.000
    C45      C        0.52500    0.29910    0.67090    1.000
    H45      H        0.54540    0.32720    0.67340    1.000
    C46      C        0.64190    0.16730    0.53580    1.000
    H46      H        0.65230    0.14140    0.56460    1.000
    N29      N        0.63000    0.17580    0.71340    1.000
    N30      N        0.65380    0.28860    0.68320    1.000
    N31      N        0.54090    0.25120    0.66680    1.000
    N32      N        0.62330    0.21390    0.55710    1.000
    Zn8      Zn       0.61096    0.23213    0.65461    1.000
    C47      C        0.52550    0.28640    0.72260    1.000
    H47      H        0.54640    0.30470    0.75160    1.000
    C48      C        0.66350    0.18420    0.53540    1.000
    H48      H        0.68600    0.16760    0.56410    1.000
    C49      C        0.63290    0.10450    0.77210    1.000
    H49      H        0.62440    0.07320    0.78940    1.000
    C50      C        0.80820    0.15760    0.75210    1.000
    H50      H        0.79870    0.13860    0.71370    1.000
    C51      C        0.79910    0.02500    0.82910    1.000
    H51      H        0.82720    0.04540    0.82660    1.000
    C52      C        0.66730    0.14190    0.96420    1.000
    H52      H        0.64140    0.15230    0.93540    1.000
    N33      N        0.67580    0.13000    0.78660    1.000
    N34      N        0.78860    0.15380    0.81680    1.000
    N35      N        0.75120    0.04090    0.83320    1.000
    N36      N        0.71390    0.12330    0.94290    1.000
    Zn9      Zn       0.73213    0.11096    0.84539    1.000
    C53      C        0.78640    0.02550    0.77740    1.000
    H53      H        0.80470    0.04640    0.74840    1.000
    C54      C        0.68420    0.16350    0.96460    1.000
    H54      H        0.66760    0.18600    0.93590    1.000
    C55      C        0.13290    0.60450    0.27210    1.000
    H55      H        0.12440    0.57320    0.28940    1.000
    C56      C        0.30820    0.65760    0.25210    1.000
    H56      H        0.29870    0.63860    0.21370    1.000
    C57      C        0.29910    0.52500    0.32910    1.000
    H57      H        0.32720    0.54540    0.32660    1.000
    C58      C        0.16730    0.64190    0.46420    1.000
    H58      H        0.14140    0.65230    0.43540    1.000
    N37      N        0.17580    0.63000    0.28660    1.000
    N38      N        0.28860    0.65380    0.31680    1.000
    N39      N        0.25120    0.54090    0.33320    1.000
    N40      N        0.21390    0.62330    0.44290    1.000
    Zn10     Zn       0.23213    0.61096    0.34539    1.000
    C59      C        0.28640    0.52550    0.27740    1.000
    H59      H        0.30470    0.54640    0.24840    1.000
    C60      C        0.18420    0.66350    0.46460    1.000
    H60      H        0.16760    0.68600    0.43590    1.000
    C61      C        0.36710    0.89550    0.77210    1.000
    H61      H        0.37560    0.92680    0.78940    1.000
    C62      C        0.19180    0.84240    0.75210    1.000
    H62      H        0.20130    0.86140    0.71370    1.000
    C63      C        0.20090    0.97500    0.82910    1.000
    H63      H        0.17280    0.95460    0.82660    1.000
    C64      C        0.33270    0.85810    0.96420    1.000
    H64      H        0.35860    0.84770    0.93540    1.000
    N41      N        0.32420    0.87000    0.78660    1.000
    N42      N        0.21140    0.84620    0.81680    1.000
    N43      N        0.24880    0.95910    0.83320    1.000
    N44      N        0.28610    0.87670    0.94290    1.000
    Zn11     Zn       0.26787    0.88904    0.84539    1.000
    C65      C        0.21360    0.97450    0.77740    1.000
    H65      H        0.19530    0.95360    0.74840    1.000
    C66      C        0.31580    0.83650    0.96460    1.000
    H66      H        0.33240    0.81400    0.93590    1.000
    C67      C        0.86710    0.39550    0.27210    1.000
    H67      H        0.87560    0.42680    0.28940    1.000
    C68      C        0.69180    0.34240    0.25210    1.000
    H68      H        0.70130    0.36140    0.21370    1.000
    C69      C        0.70090    0.47500    0.32910    1.000
    H69      H        0.67280    0.45460    0.32660    1.000
    C70      C        0.83270    0.35810    0.46420    1.000
    H70      H        0.85860    0.34770    0.43540    1.000
    N45      N        0.82420    0.37000    0.28660    1.000
    N46      N        0.71140    0.34620    0.31680    1.000
    N47      N        0.74880    0.45910    0.33320    1.000
    N48      N        0.78610    0.37670    0.44290    1.000
    Zn12     Zn       0.76787    0.38904    0.34539    1.000
    C71      C        0.71360    0.47450    0.27740    1.000
    H71      H        0.69530    0.45360    0.24840    1.000
    C72      C        0.81580    0.33650    0.46460    1.000
    H72      H        0.83240    0.31400    0.43590    1.000
    C73      C        0.10450    0.36710    0.77210    1.000
    H73      H        0.07320    0.37560    0.78940    1.000
    C74      C        0.15760    0.19180    0.75210    1.000
    H74      H        0.13860    0.20130    0.71370    1.000
    C75      C        0.02500    0.20090    0.82910    1.000
    H75      H        0.04540    0.17280    0.82660    1.000
    C76      C        0.14190    0.33270    0.96420    1.000
    H76      H        0.15230    0.35860    0.93540    1.000
    N49      N        0.13000    0.32420    0.78660    1.000
    N50      N        0.15380    0.21140    0.81680    1.000
    N51      N        0.04090    0.24880    0.83320    1.000
    N52      N        0.12330    0.28610    0.94290    1.000
    Zn13     Zn       0.11096    0.26787    0.84539    1.000
    C77      C        0.02550    0.21360    0.77740    1.000
    H77      H        0.04640    0.19530    0.74840    1.000
    C78      C        0.16350    0.31580    0.96460    1.000
    H78      H        0.18600    0.33240    0.93590    1.000
    C79      C        0.60450    0.86710    0.27210    1.000
    H79      H        0.57320    0.87560    0.28940    1.000
    C80      C        0.65760    0.69180    0.25210    1.000
    H80      H        0.63860    0.70130    0.21370    1.000
    C81      C        0.52500    0.70090    0.32910    1.000
    H81      H        0.54540    0.67280    0.32660    1.000
    C82      C        0.64190    0.83270    0.46420    1.000
    H82      H        0.65230    0.85860    0.43540    1.000
    N53      N        0.63000    0.82420    0.28660    1.000
    N54      N        0.65380    0.71140    0.31680    1.000
    N55      N        0.54090    0.74880    0.33320    1.000
    N56      N        0.62330    0.78610    0.44290    1.000
    Zn14     Zn       0.61096    0.76787    0.34539    1.000
    C83      C        0.52550    0.71360    0.27740    1.000
    H83      H        0.54640    0.69530    0.24840    1.000
    C84      C        0.66350    0.81580    0.46460    1.000
    H84      H        0.68600    0.83240    0.43590    1.000
    C85      C        0.89550    0.63290    0.77210    1.000
    H85      H        0.92680    0.62440    0.78940    1.000
    C86      C        0.84240    0.80820    0.75210    1.000
    H86      H        0.86140    0.79870    0.71370    1.000
    C87      C        0.97500    0.79910    0.82910    1.000
    H87      H        0.95460    0.82720    0.82660    1.000
    C88      C        0.85810    0.66730    0.96420    1.000
    H88      H        0.84770    0.64140    0.93540    1.000
    N57      N        0.87000    0.67580    0.78660    1.000
    N58      N        0.84620    0.78860    0.81680    1.000
    N59      N        0.95910    0.75120    0.83320    1.000
    N60      N        0.87670    0.71390    0.94290    1.000
    Zn15     Zn       0.88904    0.73213    0.84539    1.000
    C89      C        0.97450    0.78640    0.77740    1.000
    H89      H        0.95360    0.80470    0.74840    1.000
    C90      C        0.83650    0.68420    0.96460    1.000
    H90      H        0.81400    0.66760    0.93590    1.000
    C91      C        0.39550    0.13290    0.27210    1.000
    H91      H        0.42680    0.12440    0.28940    1.000
    C92      C        0.34240    0.30820    0.25210    1.000
    H92      H        0.36140    0.29870    0.21370    1.000
    C93      C        0.47500    0.29910    0.32910    1.000
    H93      H        0.45460    0.32720    0.32660    1.000
    C94      C        0.35810    0.16730    0.46420    1.000
    H94      H        0.34770    0.14140    0.43540    1.000
    N61      N        0.37000    0.17580    0.28660    1.000
    N62      N        0.34620    0.28860    0.31680    1.000
    N63      N        0.45910    0.25120    0.33320    1.000
    N64      N        0.37670    0.21390    0.44290    1.000
    Zn16     Zn       0.38904    0.23213    0.34539    1.000
    C95      C        0.47450    0.28640    0.27740    1.000
    H95      H        0.45360    0.30470    0.24840    1.000
    C96      C        0.33650    0.18420    0.46460    1.000
    H96      H        0.31400    0.16760    0.43590    1.000
    C97      C        0.63290    0.89550    0.77210    1.000
    H97      H        0.62440    0.92680    0.78940    1.000
    C98      C        0.80820    0.84240    0.75210    1.000
    H98      H        0.79870    0.86140    0.71370    1.000
    C99      C        0.79910    0.97500    0.82910    1.000
    H99      H        0.82720    0.95460    0.82660    1.000
    C100     C        0.66730    0.85810    0.96420    1.000
    H100     H        0.64140    0.84770    0.93540    1.000
    N65      N        0.67580    0.87000    0.78660    1.000
    N66      N        0.78860    0.84620    0.81680    1.000
    N67      N        0.75120    0.95910    0.83320    1.000
    N68      N        0.71390    0.87670    0.94290    1.000
    Zn17     Zn       0.73213    0.88904    0.84539    1.000
    C101     C        0.78640    0.97450    0.77740    1.000
    H101     H        0.80470    0.95360    0.74840    1.000
    C102     C        0.68420    0.83650    0.96460    1.000
    H102     H        0.66760    0.81400    0.93590    1.000
    C103     C        0.13290    0.39550    0.27210    1.000
    H103     H        0.12440    0.42680    0.28940    1.000
    C104     C        0.30820    0.34240    0.25210    1.000
    H104     H        0.29870    0.36140    0.21370    1.000
    C105     C        0.29910    0.47500    0.32910    1.000
    H105     H        0.32720    0.45460    0.32660    1.000
    C106     C        0.16730    0.35810    0.46420    1.000
    H106     H        0.14140    0.34770    0.43540    1.000
    N69      N        0.17580    0.37000    0.28660    1.000
    N70      N        0.28860    0.34620    0.31680    1.000
    N71      N        0.25120    0.45910    0.33320    1.000
    N72      N        0.21390    0.37670    0.44290    1.000
    Zn18     Zn       0.23213    0.38904    0.34539    1.000
    C107     C        0.28640    0.47450    0.27740    1.000
    H107     H        0.30470    0.45360    0.24840    1.000
    C108     C        0.18420    0.33650    0.46460    1.000
    H108     H        0.16760    0.31400    0.43590    1.000
    C109     C        0.36710    0.10450    0.77210    1.000
    H109     H        0.37560    0.07320    0.78940    1.000
    C110     C        0.19180    0.15760    0.75210    1.000
    H110     H        0.20130    0.13860    0.71370    1.000
    C111     C        0.20090    0.02500    0.82910    1.000
    H111     H        0.17280    0.04540    0.82660    1.000
    C112     C        0.33270    0.14190    0.96420    1.000
    H112     H        0.35860    0.15230    0.93540    1.000
    N73      N        0.32420    0.13000    0.78660    1.000
    N74      N        0.21140    0.15380    0.81680    1.000
    N75      N        0.24880    0.04090    0.83320    1.000
    N76      N        0.28610    0.12330    0.94290    1.000
    Zn19     Zn       0.26787    0.11096    0.84539    1.000
    C113     C        0.21360    0.02550    0.77740    1.000
    H113     H        0.19530    0.04640    0.74840    1.000
    C114     C        0.31580    0.16350    0.96460    1.000
    H114     H        0.33240    0.18600    0.93590    1.000
    C115     C        0.86710    0.60450    0.27210    1.000
    H115     H        0.87560    0.57320    0.28940    1.000
    C116     C        0.69180    0.65760    0.25210    1.000
    H116     H        0.70130    0.63860    0.21370    1.000
    C117     C        0.70090    0.52500    0.32910    1.000
    H117     H        0.67280    0.54540    0.32660    1.000
    C118     C        0.83270    0.64190    0.46420    1.000
    H118     H        0.85860    0.65230    0.43540    1.000
    N77      N        0.82420    0.63000    0.28660    1.000
    N78      N        0.71140    0.65380    0.31680    1.000
    N79      N        0.74880    0.54090    0.33320    1.000
    N80      N        0.78610    0.62330    0.44290    1.000
    Zn20     Zn       0.76787    0.61096    0.34539    1.000
    C119     C        0.71360    0.52550    0.27740    1.000
    H119     H        0.69530    0.54640    0.24840    1.000
    C120     C        0.81580    0.66350    0.46460    1.000
    H120     H        0.83240    0.68600    0.43590    1.000
    C121     C        0.10450    0.63290    0.77210    1.000
    H121     H        0.07320    0.62440    0.78940    1.000
    C122     C        0.15760    0.80820    0.75210    1.000
    H122     H        0.13860    0.79870    0.71370    1.000
    C123     C        0.02500    0.79910    0.82910    1.000
    H123     H        0.04540    0.82720    0.82660    1.000
    C124     C        0.14190    0.66730    0.96420    1.000
    H124     H        0.15230    0.64140    0.93540    1.000
    N81      N        0.13000    0.67580    0.78660    1.000
    N82      N        0.15380    0.78860    0.81680    1.000
    N83      N        0.04090    0.75120    0.83320    1.000
    N84      N        0.12330    0.71390    0.94290    1.000
    Zn21     Zn       0.11096    0.73213    0.84539    1.000
    C125     C        0.02550    0.78640    0.77740    1.000
    H125     H        0.04640    0.80470    0.74840    1.000
    C126     C        0.16350    0.68420    0.96460    1.000
    H126     H        0.18600    0.66760    0.93590    1.000
    C127     C        0.60450    0.13290    0.27210    1.000
    H127     H        0.57320    0.12440    0.28940    1.000
    C128     C        0.65760    0.30820    0.25210    1.000
    H128     H        0.63860    0.29870    0.21370    1.000
    C129     C        0.52500    0.29910    0.32910    1.000
    H129     H        0.54540    0.32720    0.32660    1.000
    C130     C        0.64190    0.16730    0.46420    1.000
    H130     H        0.65230    0.14140    0.43540    1.000
    N85      N        0.63000    0.17580    0.28660    1.000
    N86      N        0.65380    0.28860    0.31680    1.000
    N87      N        0.54090    0.25120    0.33320    1.000
    N88      N        0.62330    0.21390    0.44290    1.000
    Zn22     Zn       0.61096    0.23213    0.34539    1.000
    C131     C        0.52550    0.28640    0.27740    1.000
    H131     H        0.54640    0.30470    0.24840    1.000
    C132     C        0.66350    0.18420    0.46460    1.000
    H132     H        0.68600    0.16760    0.43590    1.000
    C133     C        0.89550    0.36710    0.77210    1.000
    H133     H        0.92680    0.37560    0.78940    1.000
    C134     C        0.84240    0.19180    0.75210    1.000
    H134     H        0.86140    0.20130    0.71370    1.000
    C135     C        0.97500    0.20090    0.82910    1.000
    H135     H        0.95460    0.17280    0.82660    1.000
    C136     C        0.85810    0.33270    0.96420    1.000
    H136     H        0.84770    0.35860    0.93540    1.000
    N89      N        0.87000    0.32420    0.78660    1.000
    N90      N        0.84620    0.21140    0.81680    1.000
    N91      N        0.95910    0.24880    0.83320    1.000
    N92      N        0.87670    0.28610    0.94290    1.000
    Zn23     Zn       0.88904    0.26787    0.84539    1.000
    C137     C        0.97450    0.21360    0.77740    1.000
    H137     H        0.95360    0.19530    0.74840    1.000
    C138     C        0.83650    0.31580    0.96460    1.000
    H138     H        0.81400    0.33240    0.93590    1.000
    C139     C        0.39550    0.86710    0.27210    1.000
    H139     H        0.42680    0.87560    0.28940    1.000
    C140     C        0.34240    0.69180    0.25210    1.000
    H140     H        0.36140    0.70130    0.21370    1.000
    C141     C        0.47500    0.70090    0.32910    1.000
    H141     H        0.45460    0.67280    0.32660    1.000
    C142     C        0.35810    0.83270    0.46420    1.000
    H142     H        0.34770    0.85860    0.43540    1.000
    N93      N        0.37000    0.82420    0.28660    1.000
    N94      N        0.34620    0.71140    0.31680    1.000
    N95      N        0.45910    0.74880    0.33320    1.000
    N96      N        0.37670    0.78610    0.44290    1.000
    Zn24     Zn       0.38904    0.76787    0.34539    1.000
    C143     C        0.47450    0.71360    0.27740    1.000
    H143     H        0.45360    0.69530    0.24840    1.000
    C144     C        0.33650    0.81580    0.46460    1.000
    H144     H        0.31400    0.83240    0.43590    1.000
    C145     C        0.36710    0.89550    0.22790    1.000
    H145     H        0.37560    0.92680    0.21060    1.000
    C146     C        0.19180    0.84240    0.24790    1.000
    H146     H        0.20130    0.86140    0.28630    1.000
    C147     C        0.20090    0.97500    0.17090    1.000
    H147     H        0.17280    0.95460    0.17340    1.000
    C148     C        0.33270    0.85810    0.03580    1.000
    H148     H        0.35860    0.84770    0.06460    1.000
    N97      N        0.32420    0.87000    0.21340    1.000
    N98      N        0.21140    0.84620    0.18320    1.000
    N99      N        0.24880    0.95910    0.16680    1.000
    N100     N        0.28610    0.87670    0.05710    1.000
    Zn25     Zn       0.26787    0.88904    0.15461    1.000
    C149     C        0.21360    0.97450    0.22260    1.000
    H149     H        0.19530    0.95360    0.25160    1.000
    C150     C        0.31580    0.83650    0.03540    1.000
    H150     H        0.33240    0.81400    0.06410    1.000
    C151     C        0.86710    0.39550    0.72790    1.000
    H151     H        0.87560    0.42680    0.71060    1.000
    C152     C        0.69180    0.34240    0.74790    1.000
    H152     H        0.70130    0.36140    0.78630    1.000
    C153     C        0.70090    0.47500    0.67090    1.000
    H153     H        0.67280    0.45460    0.67340    1.000
    C154     C        0.83270    0.35810    0.53580    1.000
    H154     H        0.85860    0.34770    0.56460    1.000
    N101     N        0.82420    0.37000    0.71340    1.000
    N102     N        0.71140    0.34620    0.68320    1.000
    N103     N        0.74880    0.45910    0.66680    1.000
    N104     N        0.78610    0.37670    0.55710    1.000
    Zn26     Zn       0.76787    0.38904    0.65461    1.000
    C155     C        0.71360    0.47450    0.72260    1.000
    H155     H        0.69530    0.45360    0.75160    1.000
    C156     C        0.81580    0.33650    0.53540    1.000
    H156     H        0.83240    0.31400    0.56410    1.000
    C157     C        0.63290    0.10450    0.22790    1.000
    H157     H        0.62440    0.07320    0.21060    1.000
    C158     C        0.80820    0.15760    0.24790    1.000
    H158     H        0.79870    0.13860    0.28630    1.000
    C159     C        0.79910    0.02500    0.17090    1.000
    H159     H        0.82720    0.04540    0.17340    1.000
    C160     C        0.66730    0.14190    0.03580    1.000
    H160     H        0.64140    0.15230    0.06460    1.000
    N105     N        0.67580    0.13000    0.21340    1.000
    N106     N        0.78860    0.15380    0.18320    1.000
    N107     N        0.75120    0.04090    0.16680    1.000
    N108     N        0.71390    0.12330    0.05710    1.000
    Zn27     Zn       0.73213    0.11096    0.15461    1.000
    C161     C        0.78640    0.02550    0.22260    1.000
    H161     H        0.80470    0.04640    0.25160    1.000
    C162     C        0.68420    0.16350    0.03540    1.000
    H162     H        0.66760    0.18600    0.06410    1.000
    C163     C        0.13290    0.60450    0.72790    1.000
    H163     H        0.12440    0.57320    0.71060    1.000
    C164     C        0.30820    0.65760    0.74790    1.000
    H164     H        0.29870    0.63860    0.78630    1.000
    C165     C        0.29910    0.52500    0.67090    1.000
    H165     H        0.32720    0.54540    0.67340    1.000
    C166     C        0.16730    0.64190    0.53580    1.000
    H166     H        0.14140    0.65230    0.56460    1.000
    N109     N        0.17580    0.63000    0.71340    1.000
    N110     N        0.28860    0.65380    0.68320    1.000
    N111     N        0.25120    0.54090    0.66680    1.000
    N112     N        0.21390    0.62330    0.55710    1.000
    Zn28     Zn       0.23213    0.61096    0.65461    1.000
    C167     C        0.28640    0.52550    0.72260    1.000
    H167     H        0.30470    0.54640    0.75160    1.000
    C168     C        0.18420    0.66350    0.53540    1.000
    H168     H        0.16760    0.68600    0.56410    1.000
    C169     C        0.89550    0.63290    0.22790    1.000
    H169     H        0.92680    0.62440    0.21060    1.000
    C170     C        0.84240    0.80820    0.24790    1.000
    H170     H        0.86140    0.79870    0.28630    1.000
    C171     C        0.97500    0.79910    0.17090    1.000
    H171     H        0.95460    0.82720    0.17340    1.000
    C172     C        0.85810    0.66730    0.03580    1.000
    H172     H        0.84770    0.64140    0.06460    1.000
    N113     N        0.87000    0.67580    0.21340    1.000
    N114     N        0.84620    0.78860    0.18320    1.000
    N115     N        0.95910    0.75120    0.16680    1.000
    N116     N        0.87670    0.71390    0.05710    1.000
    Zn29     Zn       0.88904    0.73213    0.15461    1.000
    C173     C        0.97450    0.78640    0.22260    1.000
    H173     H        0.95360    0.80470    0.25160    1.000
    C174     C        0.83650    0.68420    0.03540    1.000
    H174     H        0.81400    0.66760    0.06410    1.000
    C175     C        0.39550    0.13290    0.72790    1.000
    H175     H        0.42680    0.12440    0.71060    1.000
    C176     C        0.34240    0.30820    0.74790    1.000
    H176     H        0.36140    0.29870    0.78630    1.000
    C177     C        0.47500    0.29910    0.67090    1.000
    H177     H        0.45460    0.32720    0.67340    1.000
    C178     C        0.35810    0.16730    0.53580    1.000
    H178     H        0.34770    0.14140    0.56460    1.000
    N117     N        0.37000    0.17580    0.71340    1.000
    N118     N        0.34620    0.28860    0.68320    1.000
    N119     N        0.45910    0.25120    0.66680    1.000
    N120     N        0.37670    0.21390    0.55710    1.000
    Zn30     Zn       0.38904    0.23213    0.65461    1.000
    C179     C        0.47450    0.28640    0.72260    1.000
    H179     H        0.45360    0.30470    0.75160    1.000
    C180     C        0.33650    0.18420    0.53540    1.000
    H180     H        0.31400    0.16760    0.56410    1.000
    C181     C        0.10450    0.36710    0.22790    1.000
    H181     H        0.07320    0.37560    0.21060    1.000
    C182     C        0.15760    0.19180    0.24790    1.000
    H182     H        0.13860    0.20130    0.28630    1.000
    C183     C        0.02500    0.20090    0.17090    1.000
    H183     H        0.04540    0.17280    0.17340    1.000
    C184     C        0.14190    0.33270    0.03580    1.000
    H184     H        0.15230    0.35860    0.06460    1.000
    N121     N        0.13000    0.32420    0.21340    1.000
    N122     N        0.15380    0.21140    0.18320    1.000
    N123     N        0.04090    0.24880    0.16680    1.000
    N124     N        0.12330    0.28610    0.05710    1.000
    Zn31     Zn       0.11096    0.26787    0.15461    1.000
    C185     C        0.02550    0.21360    0.22260    1.000
    H185     H        0.04640    0.19530    0.25160    1.000
    C186     C        0.16350    0.31580    0.03540    1.000
    H186     H        0.18600    0.33240    0.06410    1.000
    C187     C        0.60450    0.86710    0.72790    1.000
    H187     H        0.57320    0.87560    0.71060    1.000
    C188     C        0.65760    0.69180    0.74790    1.000
    H188     H        0.63860    0.70130    0.78630    1.000
    C189     C        0.52500    0.70090    0.67090    1.000
    H189     H        0.54540    0.67280    0.67340    1.000
    C190     C        0.64190    0.83270    0.53580    1.000
    H190     H        0.65230    0.85860    0.56460    1.000
    N125     N        0.63000    0.82420    0.71340    1.000
    N126     N        0.65380    0.71140    0.68320    1.000
    N127     N        0.54090    0.74880    0.66680    1.000
    N128     N        0.62330    0.78610    0.55710    1.000
    Zn32     Zn       0.61096    0.76787    0.65461    1.000
    C191     C        0.52550    0.71360    0.72260    1.000
    H191     H        0.54640    0.69530    0.75160    1.000
    C192     C        0.66350    0.81580    0.53540    1.000
    H192     H        0.68600    0.83240    0.56410    1.000
    C193     C        0.32820    0.17180    0.25000    1.000
    H193     H        0.30360    0.19640    0.25000    1.000
    C194     C        0.67180    0.82820    0.25000    1.000
    H194     H        0.69640    0.80360    0.25000    1.000
    C195     C        0.82820    0.32820    0.25000    1.000
    H195     H        0.80360    0.30360    0.25000    1.000
    C196     C        0.17180    0.67180    0.25000    1.000
    H196     H        0.19640    0.69640    0.25000    1.000
    C197     C        0.67180    0.17180    0.75000    1.000
    H197     H        0.69640    0.19640    0.75000    1.000
    C198     C        0.32820    0.82820    0.75000    1.000
    H198     H        0.30360    0.80360    0.75000    1.000
    C199     C        0.17180    0.32820    0.75000    1.000
    H199     H        0.19640    0.30360    0.75000    1.000
    C200     C        0.82820    0.67180    0.75000    1.000
    H200     H        0.80360    0.69640    0.75000    1.000
    C201     C        0.67180    0.82820    0.75000    1.000
    H201     H        0.69640    0.80360    0.75000    1.000
    C202     C        0.17180    0.32820    0.25000    1.000
    H202     H        0.19640    0.30360    0.25000    1.000
    C203     C        0.32820    0.17180    0.75000    1.000
    H203     H        0.30360    0.19640    0.75000    1.000
    C204     C        0.17180    0.67180    0.75000    1.000
    H204     H        0.19640    0.69640    0.75000    1.000
    C205     C        0.82820    0.32820    0.75000    1.000
    H205     H        0.80360    0.30360    0.75000    1.000
    C206     C        0.32820    0.82820    0.25000    1.000
    H206     H        0.30360    0.80360    0.25000    1.000
    C207     C        0.67180    0.17180    0.25000    1.000
    H207     H        0.69640    0.19640    0.25000    1.000
    C208     C        0.82820    0.67180    0.25000    1.000
    H208     H        0.80360    0.69640    0.25000    1.000
    C209     C        0.18740    0.18740    0.14770    1.000
    H209     H        0.19360    0.19360    0.10090    1.000
    C210     C        0.68740    0.68740    0.64770    1.000
    H210     H        0.69360    0.69360    0.60090    1.000
    C211     C        0.81260    0.81260    0.14770    1.000
    H211     H        0.80640    0.80640    0.10090    1.000
    C212     C        0.31260    0.31260    0.64770    1.000
    H212     H        0.30640    0.30640    0.60090    1.000
    C213     C        0.81260    0.18740    0.14770    1.000
    H213     H        0.80640    0.19360    0.10090    1.000
    C214     C        0.31260    0.68740    0.64770    1.000
    H214     H        0.30640    0.69360    0.60090    1.000
    C215     C        0.18740    0.81260    0.14770    1.000
    H215     H        0.19360    0.80640    0.10090    1.000
    C216     C        0.68740    0.31260    0.64770    1.000
    H216     H        0.69360    0.30640    0.60090    1.000
    C217     C        0.81260    0.18740    0.85230    1.000
    H217     H        0.80640    0.19360    0.89910    1.000
    C218     C        0.31260    0.68740    0.35230    1.000
    H218     H        0.30640    0.69360    0.39910    1.000
    C219     C        0.18740    0.81260    0.85230    1.000
    H219     H        0.19360    0.80640    0.89910    1.000
    C220     C        0.68740    0.31260    0.35230    1.000
    H220     H        0.69360    0.30640    0.39910    1.000
    C221     C        0.18740    0.18740    0.85230    1.000
    H221     H        0.19360    0.19360    0.89910    1.000
    C222     C        0.68740    0.68740    0.35230    1.000
    H222     H        0.69360    0.69360    0.39910    1.000
    C223     C        0.81260    0.81260    0.85230    1.000
    H223     H        0.80640    0.80640    0.89910    1.000
    C224     C        0.31260    0.31260    0.35230    1.000
    H224     H        0.30640    0.30640    0.39910    1.000
    C225     C        0.26840    0.00000    0.15210    1.000
    H225     H        0.29900    0.00000    0.12920    1.000
    C226     C        0.76840    0.50000    0.65210    1.000
    H226     H        0.79900    0.50000    0.62920    1.000
    C227     C        0.73160    0.00000    0.15210    1.000
    H227     H        0.70100    0.00000    0.12920    1.000
    C228     C        0.23160    0.50000    0.65210    1.000
    H228     H        0.20100    0.50000    0.62920    1.000
    C229     C        0.00000    0.26840    0.15210    1.000
    H229     H        0.00000    0.29900    0.12920    1.000
    C230     C        0.50000    0.76840    0.65210    1.000
    H230     H        0.50000    0.79900    0.62920    1.000
    C231     C        0.00000    0.73160    0.15210    1.000
    H231     H        0.00000    0.70100    0.12920    1.000
    C232     C        0.50000    0.23160    0.65210    1.000
    H232     H        0.50000    0.20100    0.62920    1.000
    C233     C        0.73160    0.00000    0.84790    1.000
    H233     H        0.70100    0.00000    0.87080    1.000
    C234     C        0.23160    0.50000    0.34790    1.000
    H234     H        0.20100    0.50000    0.37080    1.000
    C235     C        0.26840    0.00000    0.84790    1.000
    H235     H        0.29900    0.00000    0.87080    1.000
    C236     C        0.76840    0.50000    0.34790    1.000
    H236     H        0.79900    0.50000    0.37080    1.000
    C237     C        0.00000    0.26840    0.84790    1.000
    H237     H        0.00000    0.29900    0.87080    1.000
    C238     C        0.50000    0.76840    0.34790    1.000
    H238     H        0.50000    0.79900    0.37080    1.000
    C239     C        0.00000    0.73160    0.84790    1.000
    H239     H        0.00000    0.70100    0.87080    1.000
    C240     C        0.50000    0.23160    0.34790    1.000
    H240     H        0.50000    0.20100    0.37080    1.000
    C241     C        0.26540    0.10750    0.00000    1.000
    H241     H        0.23790    0.08640    0.00000    1.000
    C242     C        0.76540    0.60750    0.50000    1.000
    H242     H        0.73790    0.58640    0.50000    1.000
    C243     C        0.73460    0.89250    0.00000    1.000
    H243     H        0.76210    0.91360    0.00000    1.000
    C244     C        0.23460    0.39250    0.50000    1.000
    H244     H        0.26210    0.41360    0.50000    1.000
    C245     C        0.89250    0.26540    0.00000    1.000
    H245     H        0.91360    0.23790    0.00000    1.000
    C246     C        0.39250    0.76540    0.50000    1.000
    H246     H        0.41360    0.73790    0.50000    1.000
    C247     C        0.10750    0.73460    0.00000    1.000
    H247     H        0.08640    0.76210    0.00000    1.000
    C248     C        0.60750    0.23460    0.50000    1.000
    H248     H        0.58640    0.26210    0.50000    1.000
    C249     C        0.73460    0.10750    0.00000    1.000
    H249     H        0.76210    0.08640    0.00000    1.000
    C250     C        0.23460    0.60750    0.50000    1.000
    H250     H        0.26210    0.58640    0.50000    1.000
    C251     C        0.26540    0.89250    0.00000    1.000
    H251     H        0.23790    0.91360    0.00000    1.000
    C252     C        0.76540    0.39250    0.50000    1.000
    H252     H        0.73790    0.41360    0.50000    1.000
    C253     C        0.10750    0.26540    0.00000    1.000
    H253     H        0.08640    0.23790    0.00000    1.000
    C254     C        0.60750    0.76540    0.50000    1.000
    H254     H        0.58640    0.73790    0.50000    1.000
    C255     C        0.89250    0.73460    0.00000    1.000
    H255     H        0.91360    0.76210    0.00000    1.000
    C256     C        0.39250    0.23460    0.50000    1.000
    H256     H        0.41360    0.26210    0.50000    1.000
