# CIF file generated by openbabel 3.1.0, see https://openbabel.org
data_I
_chemical_name_common 'image0'
_cell_length_a 18.2337
_cell_length_b 11.3228
_cell_length_c 18.7067
_cell_angle_alpha 90
_cell_angle_beta 108.39
_cell_angle_gamma 90
_space_group_name_H-M_alt 'P 1'
_space_group_name_Hall 'P 1'
loop_
    _symmetry_equiv_pos_as_xyz
    x,y,z
loop_
    _atom_site_label
    _atom_site_type_symbol
    _atom_site_fract_x
    _atom_site_fract_y
    _atom_site_fract_z
    _atom_site_occupancy
    Ho1      Ho       0.50129    0.93406    0.39693    1.000
    O1       O        0.58860    0.92670    0.22140    1.000
    O2       O        0.57760    0.06990    0.47980    1.000
    O3       O        0.58650    0.97530    0.33610    1.000
    O4       O        0.92190    0.59390    0.38840    1.000
    O5       O        0.92610    0.67120    0.49920    1.000
    C1       C        0.61730    0.92690    0.29100    1.000
    C2       C        0.79460    0.79960    0.43520    1.000
    H1       H        0.81640    0.79700    0.48740    1.000
    C3       C        0.89870    0.66410    0.42900    1.000
    C4       C        0.72620    0.86010    0.40410    1.000
    H2       H        0.70140    0.89520    0.43510    1.000
    C5       C        0.69460    0.86850    0.32610    1.000
    C6       C        0.83150    0.74270    0.39060    1.000
    C7       C        0.73310    0.81820    0.28040    1.000
    H3       H        0.71330    0.82650    0.22840    1.000
    C8       C        0.80180    0.75480    0.31230    1.000
    N1       N        0.83480    0.70530    0.26140    1.000
    H4       H        0.80470    0.71480    0.21580    1.000
    O6       O        0.59490    0.18090    0.58010    1.000
    C9       C        0.68340    0.20340    0.51160    1.000
    C10      C        0.72320    0.29710    0.55660    1.000
    C11      C        0.71050    0.15890    0.45530    1.000
    H5       H        0.68340    0.09800    0.42490    1.000
    C12      C        0.61420    0.14910    0.52430    1.000
    N2       N        0.70020    0.35560    0.61030    1.000
    H6       H        0.69440    0.30640    0.64370    1.000
    H7       H        0.73560    0.40610    0.63290    1.000
    H8       H        0.87300    0.63500    0.27500    1.000
    Ho2      Ho       0.00129    0.43406    0.39693    1.000
    O7       O        0.08860    0.42670    0.22140    1.000
    O8       O        0.07760    0.56990    0.47980    1.000
    O9       O        0.08650    0.47530    0.33610    1.000
    O10      O        0.42190    0.09390    0.38840    1.000
    O11      O        0.42610    0.17120    0.49920    1.000
    C13      C        0.11730    0.42690    0.29100    1.000
    C14      C        0.29460    0.29960    0.43520    1.000
    H9       H        0.31640    0.29700    0.48740    1.000
    C15      C        0.39870    0.16410    0.42900    1.000
    C16      C        0.22620    0.36010    0.40410    1.000
    H10      H        0.20140    0.39520    0.43510    1.000
    C17      C        0.19460    0.36850    0.32610    1.000
    C18      C        0.33150    0.24270    0.39060    1.000
    C19      C        0.23310    0.31820    0.28040    1.000
    H11      H        0.21330    0.32650    0.22840    1.000
    C20      C        0.30180    0.25480    0.31230    1.000
    N3       N        0.33480    0.20530    0.26140    1.000
    H12      H        0.30470    0.21480    0.21580    1.000
    O12      O        0.09490    0.68090    0.58010    1.000
    C21      C        0.18340    0.70340    0.51160    1.000
    C22      C        0.22320    0.79710    0.55660    1.000
    C23      C        0.21050    0.65890    0.45530    1.000
    H13      H        0.18340    0.59800    0.42490    1.000
    C24      C        0.11420    0.64910    0.52430    1.000
    N4       N        0.20020    0.85560    0.61030    1.000
    H14      H        0.19440    0.80640    0.64370    1.000
    H15      H        0.23560    0.90610    0.63290    1.000
    H16      H        0.37300    0.13500    0.27500    1.000
    Ho3      Ho       0.49871    0.93406    0.10307    1.000
    O13      O        0.41140    0.92670    0.27860    1.000
    O14      O        0.42240    0.06990    0.02020    1.000
    O15      O        0.41350    0.97530    0.16390    1.000
    O16      O        0.07810    0.59390    0.11160    1.000
    O17      O        0.07390    0.67120    0.00080    1.000
    C25      C        0.38270    0.92690    0.20900    1.000
    C26      C        0.20540    0.79960    0.06480    1.000
    H17      H        0.18360    0.79700    0.01260    1.000
    C27      C        0.10130    0.66410    0.07100    1.000
    C28      C        0.27380    0.86010    0.09590    1.000
    H18      H        0.29860    0.89520    0.06490    1.000
    C29      C        0.30540    0.86850    0.17390    1.000
    C30      C        0.16850    0.74270    0.10940    1.000
    C31      C        0.26690    0.81820    0.21960    1.000
    H19      H        0.28670    0.82650    0.27160    1.000
    C32      C        0.19820    0.75480    0.18770    1.000
    N5       N        0.16520    0.70530    0.23860    1.000
    H20      H        0.19530    0.71480    0.28420    1.000
    O18      O        0.40510    0.18090    0.91990    1.000
    C33      C        0.31660    0.20340    0.98840    1.000
    C34      C        0.27680    0.29710    0.94340    1.000
    C35      C        0.28950    0.15890    0.04470    1.000
    H21      H        0.31660    0.09800    0.07510    1.000
    C36      C        0.38580    0.14910    0.97570    1.000
    N6       N        0.29980    0.35560    0.88970    1.000
    H22      H        0.30560    0.30640    0.85630    1.000
    H23      H        0.26440    0.40610    0.86710    1.000
    H24      H        0.12700    0.63500    0.22500    1.000
    Ho4      Ho       0.99871    0.43406    0.10307    1.000
    O19      O        0.91140    0.42670    0.27860    1.000
    O20      O        0.92240    0.56990    0.02020    1.000
    O21      O        0.91350    0.47530    0.16390    1.000
    O22      O        0.57810    0.09390    0.11160    1.000
    O23      O        0.57390    0.17120    0.00080    1.000
    C37      C        0.88270    0.42690    0.20900    1.000
    C38      C        0.70540    0.29960    0.06480    1.000
    H25      H        0.68360    0.29700    0.01260    1.000
    C39      C        0.60130    0.16410    0.07100    1.000
    C40      C        0.77380    0.36010    0.09590    1.000
    H26      H        0.79860    0.39520    0.06490    1.000
    C41      C        0.80540    0.36850    0.17390    1.000
    C42      C        0.66850    0.24270    0.10940    1.000
    C43      C        0.76690    0.31820    0.21960    1.000
    H27      H        0.78670    0.32650    0.27160    1.000
    C44      C        0.69820    0.25480    0.18770    1.000
    N7       N        0.66520    0.20530    0.23860    1.000
    H28      H        0.69530    0.21480    0.28420    1.000
    O24      O        0.90510    0.68090    0.91990    1.000
    C45      C        0.81660    0.70340    0.98840    1.000
    C46      C        0.77680    0.79710    0.94340    1.000
    C47      C        0.78950    0.65890    0.04470    1.000
    H29      H        0.81660    0.59800    0.07510    1.000
    C48      C        0.88580    0.64910    0.97570    1.000
    N8       N        0.79980    0.85560    0.88970    1.000
    H30      H        0.80560    0.80640    0.85630    1.000
    H31      H        0.76440    0.90610    0.86710    1.000
    H32      H        0.62700    0.13500    0.22500    1.000
    Ho5      Ho       0.49871    0.06594    0.60307    1.000
    O25      O        0.41140    0.07330    0.77860    1.000
    O26      O        0.42240    0.93010    0.52020    1.000
    O27      O        0.41350    0.02470    0.66390    1.000
    O28      O        0.07810    0.40610    0.61160    1.000
    O29      O        0.07390    0.32880    0.50080    1.000
    C49      C        0.38270    0.07310    0.70900    1.000
    C50      C        0.20540    0.20040    0.56480    1.000
    H33      H        0.18360    0.20300    0.51260    1.000
    C51      C        0.10130    0.33590    0.57100    1.000
    C52      C        0.27380    0.13990    0.59590    1.000
    H34      H        0.29860    0.10480    0.56490    1.000
    C53      C        0.30540    0.13150    0.67390    1.000
    C54      C        0.16850    0.25730    0.60940    1.000
    C55      C        0.26690    0.18180    0.71960    1.000
    H35      H        0.28670    0.17350    0.77160    1.000
    C56      C        0.19820    0.24520    0.68770    1.000
    N9       N        0.16520    0.29470    0.73860    1.000
    H36      H        0.19530    0.28520    0.78420    1.000
    O30      O        0.40510    0.81910    0.41990    1.000
    C57      C        0.31660    0.79660    0.48840    1.000
    C58      C        0.27680    0.70290    0.44340    1.000
    C59      C        0.28950    0.84110    0.54470    1.000
    H37      H        0.31660    0.90200    0.57510    1.000
    C60      C        0.38580    0.85090    0.47570    1.000
    N10      N        0.29980    0.64440    0.38970    1.000
    H38      H        0.30560    0.69360    0.35630    1.000
    H39      H        0.26440    0.59390    0.36710    1.000
    H40      H        0.12700    0.36500    0.72500    1.000
    Ho6      Ho       0.99871    0.56594    0.60307    1.000
    O31      O        0.91140    0.57330    0.77860    1.000
    O32      O        0.92240    0.43010    0.52020    1.000
    O33      O        0.91350    0.52470    0.66390    1.000
    O34      O        0.57810    0.90610    0.61160    1.000
    O35      O        0.57390    0.82880    0.50080    1.000
    C61      C        0.88270    0.57310    0.70900    1.000
    C62      C        0.70540    0.70040    0.56480    1.000
    H41      H        0.68360    0.70300    0.51260    1.000
    C63      C        0.60130    0.83590    0.57100    1.000
    C64      C        0.77380    0.63990    0.59590    1.000
    H42      H        0.79860    0.60480    0.56490    1.000
    C65      C        0.80540    0.63150    0.67390    1.000
    C66      C        0.66850    0.75730    0.60940    1.000
    C67      C        0.76690    0.68180    0.71960    1.000
    H43      H        0.78670    0.67350    0.77160    1.000
    C68      C        0.69820    0.74520    0.68770    1.000
    N11      N        0.66520    0.79470    0.73860    1.000
    H44      H        0.69530    0.78520    0.78420    1.000
    O36      O        0.90510    0.31910    0.41990    1.000
    C69      C        0.81660    0.29660    0.48840    1.000
    C70      C        0.77680    0.20290    0.44340    1.000
    C71      C        0.78950    0.34110    0.54470    1.000
    H45      H        0.81660    0.40200    0.57510    1.000
    C72      C        0.88580    0.35090    0.47570    1.000
    N12      N        0.79980    0.14440    0.38970    1.000
    H46      H        0.80560    0.19360    0.35630    1.000
    H47      H        0.76440    0.09390    0.36710    1.000
    H48      H        0.62700    0.86500    0.72500    1.000
    Ho7      Ho       0.50129    0.06594    0.89693    1.000
    O37      O        0.58860    0.07330    0.72140    1.000
    O38      O        0.57760    0.93010    0.97980    1.000
    O39      O        0.58650    0.02470    0.83610    1.000
    O40      O        0.92190    0.40610    0.88840    1.000
    O41      O        0.92610    0.32880    0.99920    1.000
    C73      C        0.61730    0.07310    0.79100    1.000
    C74      C        0.79460    0.20040    0.93520    1.000
    H49      H        0.81640    0.20300    0.98740    1.000
    C75      C        0.89870    0.33590    0.92900    1.000
    C76      C        0.72620    0.13990    0.90410    1.000
    H50      H        0.70140    0.10480    0.93510    1.000
    C77      C        0.69460    0.13150    0.82610    1.000
    C78      C        0.83150    0.25730    0.89060    1.000
    C79      C        0.73310    0.18180    0.78040    1.000
    H51      H        0.71330    0.17350    0.72840    1.000
    C80      C        0.80180    0.24520    0.81230    1.000
    N13      N        0.83480    0.29470    0.76140    1.000
    H52      H        0.80470    0.28520    0.71580    1.000
    O42      O        0.59490    0.81910    0.08010    1.000
    C81      C        0.68340    0.79660    0.01160    1.000
    C82      C        0.72320    0.70290    0.05660    1.000
    C83      C        0.71050    0.84110    0.95530    1.000
    H53      H        0.68340    0.90200    0.92490    1.000
    C84      C        0.61420    0.85090    0.02430    1.000
    N14      N        0.70020    0.64440    0.11030    1.000
    H54      H        0.69440    0.69360    0.14370    1.000
    H55      H        0.73560    0.59390    0.13290    1.000
    H56      H        0.87300    0.36500    0.77500    1.000
    Ho8      Ho       0.00129    0.56594    0.89693    1.000
    O43      O        0.08860    0.57330    0.72140    1.000
    O44      O        0.07760    0.43010    0.97980    1.000
    O45      O        0.08650    0.52470    0.83610    1.000
    O46      O        0.42190    0.90610    0.88840    1.000
    O47      O        0.42610    0.82880    0.99920    1.000
    C85      C        0.11730    0.57310    0.79100    1.000
    C86      C        0.29460    0.70040    0.93520    1.000
    H57      H        0.31640    0.70300    0.98740    1.000
    C87      C        0.39870    0.83590    0.92900    1.000
    C88      C        0.22620    0.63990    0.90410    1.000
    H58      H        0.20140    0.60480    0.93510    1.000
    C89      C        0.19460    0.63150    0.82610    1.000
    C90      C        0.33150    0.75730    0.89060    1.000
    C91      C        0.23310    0.68180    0.78040    1.000
    H59      H        0.21330    0.67350    0.72840    1.000
    C92      C        0.30180    0.74520    0.81230    1.000
    N15      N        0.33480    0.79470    0.76140    1.000
    H60      H        0.30470    0.78520    0.71580    1.000
    O48      O        0.09490    0.31910    0.08010    1.000
    C93      C        0.18340    0.29660    0.01160    1.000
    C94      C        0.22320    0.20290    0.05660    1.000
    C95      C        0.21050    0.34110    0.95530    1.000
    H61      H        0.18340    0.40200    0.92490    1.000
    C96      C        0.11420    0.35090    0.02430    1.000
    N16      N        0.20020    0.14440    0.11030    1.000
    H62      H        0.19440    0.19360    0.14370    1.000
    H63      H        0.23560    0.09390    0.13290    1.000
    H64      H        0.37300    0.86500    0.77500    1.000
