# CIF file generated by openbabel 3.1.0, see https://openbabel.org
data_I
_chemical_name_common 'image0'
_cell_length_a 15.5527
_cell_length_b 10.0841
_cell_length_c 18.7813
_cell_angle_alpha 90
_cell_angle_beta 104.423
_cell_angle_gamma 90
_space_group_name_H-M_alt 'P 1'
_space_group_name_Hall 'P 1'
loop_
    _symmetry_equiv_pos_as_xyz
    x,y,z
loop_
    _atom_site_label
    _atom_site_type_symbol
    _atom_site_fract_x
    _atom_site_fract_y
    _atom_site_fract_z
    _atom_site_occupancy
    V1       V        0.24928    0.96938    0.28488    1.000
    V2       V        0.83101    0.89017    0.41430    1.000
    P1       P        0.20151    0.12821    0.41982    1.000
    P2       P        0.83145    0.18035    0.34034    1.000
    O1       O        0.81674    0.08138    0.39774    1.000
    O2       O        0.28366    0.21078    0.42164    1.000
    O3       O        0.20246    0.06650    0.49461    1.000
    O4       O        0.19472    0.01211    0.36587    1.000
    O5       O        0.82489    0.11553    0.26550    1.000
    O6       O        0.76455    0.29342    0.33479    1.000
    O7       O        0.21641    0.86748    0.19255    1.000
    C1       C        0.10549    0.23119    0.39149    1.000
    H1       H        0.10650    0.29870    0.43000    1.000
    H2       H        0.10840    0.27840    0.34600    1.000
    C2       C        0.01730    0.15510    0.37729    1.000
    H3       H        0.00960    0.10100    0.33210    1.000
    H4       H        0.01820    0.09450    0.41890    1.000
    C3       C        0.93988    0.25200    0.36848    1.000
    H5       H        0.94510    0.29790    0.41600    1.000
    H6       H        0.94550    0.32010    0.33190    1.000
    H7       H        0.22700    0.80100    0.20030    1.000
    V3       V        0.74928    0.46938    0.28488    1.000
    V4       V        0.33101    0.39017    0.41430    1.000
    P3       P        0.70151    0.62821    0.41982    1.000
    P4       P        0.33145    0.68035    0.34034    1.000
    O8       O        0.31674    0.58138    0.39774    1.000
    O9       O        0.78366    0.71078    0.42164    1.000
    O10      O        0.70246    0.56650    0.49461    1.000
    O11      O        0.69472    0.51211    0.36587    1.000
    O12      O        0.32489    0.61553    0.26550    1.000
    O13      O        0.26455    0.79342    0.33479    1.000
    O14      O        0.71641    0.36748    0.19255    1.000
    C4       C        0.60549    0.73119    0.39149    1.000
    H8       H        0.60650    0.79870    0.43000    1.000
    H9       H        0.60840    0.77840    0.34600    1.000
    C5       C        0.51730    0.65510    0.37729    1.000
    H10      H        0.50960    0.60100    0.33210    1.000
    H11      H        0.51820    0.59450    0.41890    1.000
    C6       C        0.43988    0.75200    0.36848    1.000
    H12      H        0.44510    0.79790    0.41600    1.000
    H13      H        0.44550    0.82010    0.33190    1.000
    H14      H        0.72700    0.30100    0.20030    1.000
    V5       V        0.75072    0.96938    0.21512    1.000
    V6       V        0.16899    0.89017    0.08570    1.000
    P5       P        0.79849    0.12821    0.08018    1.000
    P6       P        0.16855    0.18035    0.15966    1.000
    O15      O        0.18326    0.08138    0.10226    1.000
    O16      O        0.71634    0.21078    0.07836    1.000
    O17      O        0.79754    0.06650    0.00539    1.000
    O18      O        0.80528    0.01211    0.13413    1.000
    O19      O        0.17511    0.11553    0.23450    1.000
    O20      O        0.23545    0.29342    0.16521    1.000
    O21      O        0.78359    0.86748    0.30745    1.000
    C7       C        0.89451    0.23119    0.10851    1.000
    H15      H        0.89350    0.29870    0.07000    1.000
    H16      H        0.89160    0.27840    0.15400    1.000
    C8       C        0.98270    0.15510    0.12271    1.000
    H17      H        0.99040    0.10100    0.16790    1.000
    H18      H        0.98180    0.09450    0.08110    1.000
    C9       C        0.06012    0.25200    0.13152    1.000
    H19      H        0.05490    0.29790    0.08400    1.000
    H20      H        0.05450    0.32010    0.16810    1.000
    H21      H        0.77300    0.80100    0.29970    1.000
    V7       V        0.25072    0.46938    0.21512    1.000
    V8       V        0.66899    0.39017    0.08570    1.000
    P7       P        0.29849    0.62821    0.08018    1.000
    P8       P        0.66855    0.68035    0.15966    1.000
    O22      O        0.68326    0.58138    0.10226    1.000
    O23      O        0.21634    0.71078    0.07836    1.000
    O24      O        0.29754    0.56650    0.00539    1.000
    O25      O        0.30528    0.51211    0.13413    1.000
    O26      O        0.67511    0.61553    0.23450    1.000
    O27      O        0.73545    0.79342    0.16521    1.000
    O28      O        0.28359    0.36748    0.30745    1.000
    C10      C        0.39451    0.73119    0.10851    1.000
    H22      H        0.39350    0.79870    0.07000    1.000
    H23      H        0.39160    0.77840    0.15400    1.000
    C11      C        0.48270    0.65510    0.12271    1.000
    H24      H        0.49040    0.60100    0.16790    1.000
    H25      H        0.48180    0.59450    0.08110    1.000
    C12      C        0.56012    0.75200    0.13152    1.000
    H26      H        0.55490    0.79790    0.08400    1.000
    H27      H        0.55450    0.82010    0.16810    1.000
    H28      H        0.27300    0.30100    0.29970    1.000
    V9       V        0.75072    0.03062    0.71512    1.000
    V10      V        0.16899    0.10983    0.58570    1.000
    P9       P        0.79849    0.87179    0.58018    1.000
    P10      P        0.16855    0.81965    0.65966    1.000
    O29      O        0.18326    0.91862    0.60226    1.000
    O30      O        0.71634    0.78922    0.57836    1.000
    O31      O        0.79754    0.93350    0.50539    1.000
    O32      O        0.80528    0.98789    0.63413    1.000
    O33      O        0.17511    0.88447    0.73450    1.000
    O34      O        0.23545    0.70658    0.66521    1.000
    O35      O        0.78359    0.13252    0.80745    1.000
    C13      C        0.89451    0.76881    0.60851    1.000
    H29      H        0.89350    0.70130    0.57000    1.000
    H30      H        0.89160    0.72160    0.65400    1.000
    C14      C        0.98270    0.84490    0.62271    1.000
    H31      H        0.99040    0.89900    0.66790    1.000
    H32      H        0.98180    0.90550    0.58110    1.000
    C15      C        0.06012    0.74800    0.63152    1.000
    H33      H        0.05490    0.70210    0.58400    1.000
    H34      H        0.05450    0.67990    0.66810    1.000
    H35      H        0.77300    0.19900    0.79970    1.000
    V11      V        0.25072    0.53062    0.71512    1.000
    V12      V        0.66899    0.60983    0.58570    1.000
    P11      P        0.29849    0.37179    0.58018    1.000
    P12      P        0.66855    0.31965    0.65966    1.000
    O36      O        0.68326    0.41862    0.60226    1.000
    O37      O        0.21634    0.28922    0.57836    1.000
    O38      O        0.29754    0.43350    0.50539    1.000
    O39      O        0.30528    0.48789    0.63413    1.000
    O40      O        0.67511    0.38447    0.73450    1.000
    O41      O        0.73545    0.20658    0.66521    1.000
    O42      O        0.28359    0.63252    0.80745    1.000
    C16      C        0.39451    0.26881    0.60851    1.000
    H36      H        0.39350    0.20130    0.57000    1.000
    H37      H        0.39160    0.22160    0.65400    1.000
    C17      C        0.48270    0.34490    0.62271    1.000
    H38      H        0.49040    0.39900    0.66790    1.000
    H39      H        0.48180    0.40550    0.58110    1.000
    C18      C        0.56012    0.24800    0.63152    1.000
    H40      H        0.55490    0.20210    0.58400    1.000
    H41      H        0.55450    0.17990    0.66810    1.000
    H42      H        0.27300    0.69900    0.79970    1.000
    V13      V        0.24928    0.03062    0.78488    1.000
    V14      V        0.83101    0.10983    0.91430    1.000
    P13      P        0.20151    0.87179    0.91982    1.000
    P14      P        0.83145    0.81965    0.84034    1.000
    O43      O        0.81674    0.91862    0.89774    1.000
    O44      O        0.28366    0.78922    0.92164    1.000
    O45      O        0.20246    0.93350    0.99461    1.000
    O46      O        0.19472    0.98789    0.86587    1.000
    O47      O        0.82489    0.88447    0.76550    1.000
    O48      O        0.76455    0.70658    0.83479    1.000
    O49      O        0.21641    0.13252    0.69255    1.000
    C19      C        0.10549    0.76881    0.89149    1.000
    H43      H        0.10650    0.70130    0.93000    1.000
    H44      H        0.10840    0.72160    0.84600    1.000
    C20      C        0.01730    0.84490    0.87729    1.000
    H45      H        0.00960    0.89900    0.83210    1.000
    H46      H        0.01820    0.90550    0.91890    1.000
    C21      C        0.93988    0.74800    0.86848    1.000
    H47      H        0.94510    0.70210    0.91600    1.000
    H48      H        0.94550    0.67990    0.83190    1.000
    H49      H        0.22700    0.19900    0.70030    1.000
    V15      V        0.74928    0.53062    0.78488    1.000
    V16      V        0.33101    0.60983    0.91430    1.000
    P15      P        0.70151    0.37179    0.91982    1.000
    P16      P        0.33145    0.31965    0.84034    1.000
    O50      O        0.31674    0.41862    0.89774    1.000
    O51      O        0.78366    0.28922    0.92164    1.000
    O52      O        0.70246    0.43350    0.99461    1.000
    O53      O        0.69472    0.48789    0.86587    1.000
    O54      O        0.32489    0.38447    0.76550    1.000
    O55      O        0.26455    0.20658    0.83479    1.000
    O56      O        0.71641    0.63252    0.69255    1.000
    C22      C        0.60549    0.26881    0.89149    1.000
    H50      H        0.60650    0.20130    0.93000    1.000
    H51      H        0.60840    0.22160    0.84600    1.000
    C23      C        0.51730    0.34490    0.87729    1.000
    H52      H        0.50960    0.39900    0.83210    1.000
    H53      H        0.51820    0.40550    0.91890    1.000
    C24      C        0.43988    0.24800    0.86848    1.000
    H54      H        0.44510    0.20210    0.91600    1.000
    H55      H        0.44550    0.17990    0.83190    1.000
    H56      H        0.72700    0.69900    0.70030    1.000
