# CIF file generated by openbabel 3.1.0, see https://openbabel.org
data_I
_chemical_name_common 'image0'
_cell_length_a 19.8085
_cell_length_b 19.8085
_cell_length_c 19.8085
_cell_angle_alpha 90
_cell_angle_beta 90
_cell_angle_gamma 90
_space_group_name_H-M_alt 'P 1'
_space_group_name_Hall 'P 1'
loop_
    _symmetry_equiv_pos_as_xyz
    x,y,z
loop_
    _atom_site_label
    _atom_site_type_symbol
    _atom_site_fract_x
    _atom_site_fract_y
    _atom_site_fract_z
    _atom_site_occupancy
    Eu1      Eu       0.49325    0.24701    0.15309    1.000
    O1       O        0.45080    0.14720    0.20600    1.000
    O2       O        0.54130    0.34230    0.20920    1.000
    O3       O        0.41740    0.08600    0.29430    1.000
    O4       O        0.58920    0.39350    0.29690    1.000
    N1       N        0.49950    0.24190    0.28050    1.000
    C1       C        0.44510    0.13570    0.26870    1.000
    C2       C        0.55440    0.34800    0.27170    1.000
    C3       C        0.52740    0.29280    0.31590    1.000
    C4       C        0.47430    0.18880    0.31420    1.000
    C5       C        0.52980    0.29300    0.38510    1.000
    H1       H        0.54920    0.32870    0.40860    1.000
    C6       C        0.47370    0.18670    0.38400    1.000
    H2       H        0.45410    0.15060    0.40680    1.000
    C7       C        0.50240    0.23850    0.41880    1.000
    H3       H        0.50360    0.23710    0.46570    1.000
    Eu2      Eu       0.00675    0.75299    0.65309    1.000
    O5       O        0.04920    0.85280    0.70600    1.000
    O6       O        0.95870    0.65770    0.70920    1.000
    O7       O        0.08260    0.91400    0.79430    1.000
    O8       O        0.91080    0.60650    0.79690    1.000
    N2       N        0.00050    0.75810    0.78050    1.000
    C8       C        0.05490    0.86430    0.76870    1.000
    C9       C        0.94560    0.65200    0.77170    1.000
    C10      C        0.97260    0.70720    0.81590    1.000
    C11      C        0.02570    0.81120    0.81420    1.000
    C12      C        0.97020    0.70700    0.88510    1.000
    H4       H        0.95080    0.67130    0.90860    1.000
    C13      C        0.02630    0.81330    0.88400    1.000
    H5       H        0.04590    0.84940    0.90680    1.000
    C14      C        0.99760    0.76150    0.91880    1.000
    H6       H        0.99640    0.76290    0.96570    1.000
    Eu3      Eu       0.50675    0.74701    0.34691    1.000
    O9       O        0.54920    0.64720    0.29400    1.000
    O10      O        0.45870    0.84230    0.29080    1.000
    O11      O        0.58260    0.58600    0.20570    1.000
    O12      O        0.41080    0.89350    0.20310    1.000
    N3       N        0.50050    0.74190    0.21950    1.000
    C15      C        0.55490    0.63570    0.23130    1.000
    C16      C        0.44560    0.84800    0.22830    1.000
    C17      C        0.47260    0.79280    0.18410    1.000
    C18      C        0.52570    0.68880    0.18580    1.000
    C19      C        0.47020    0.79300    0.11490    1.000
    H7       H        0.45080    0.82870    0.09140    1.000
    C20      C        0.52630    0.68670    0.11600    1.000
    H8       H        0.54590    0.65060    0.09320    1.000
    C21      C        0.49760    0.73850    0.08120    1.000
    H9       H        0.49640    0.73710    0.03430    1.000
    Eu4      Eu       0.99325    0.25299    0.84691    1.000
    O13      O        0.95080    0.35280    0.79400    1.000
    O14      O        0.04130    0.15770    0.79080    1.000
    O15      O        0.91740    0.41400    0.70570    1.000
    O16      O        0.08920    0.10650    0.70310    1.000
    N4       N        0.99950    0.25810    0.71950    1.000
    C22      C        0.94510    0.36430    0.73130    1.000
    C23      C        0.05440    0.15200    0.72830    1.000
    C24      C        0.02740    0.20720    0.68410    1.000
    C25      C        0.97430    0.31120    0.68580    1.000
    C26      C        0.02980    0.20700    0.61490    1.000
    H10      H        0.04920    0.17130    0.59140    1.000
    C27      C        0.97370    0.31330    0.61600    1.000
    H11      H        0.95410    0.34940    0.59320    1.000
    C28      C        0.00240    0.26150    0.58120    1.000
    H12      H        0.00360    0.26290    0.53430    1.000
    Eu5      Eu       0.15309    0.49325    0.24701    1.000
    O17      O        0.20600    0.45080    0.14720    1.000
    O18      O        0.20920    0.54130    0.34230    1.000
    O19      O        0.29430    0.41740    0.08600    1.000
    O20      O        0.29690    0.58920    0.39350    1.000
    N5       N        0.28050    0.49950    0.24190    1.000
    C29      C        0.26870    0.44510    0.13570    1.000
    C30      C        0.27170    0.55440    0.34800    1.000
    C31      C        0.31590    0.52740    0.29280    1.000
    C32      C        0.31420    0.47430    0.18880    1.000
    C33      C        0.38510    0.52980    0.29300    1.000
    H13      H        0.40860    0.54920    0.32870    1.000
    C34      C        0.38400    0.47370    0.18670    1.000
    H14      H        0.40680    0.45410    0.15060    1.000
    C35      C        0.41880    0.50240    0.23850    1.000
    H15      H        0.46570    0.50360    0.23710    1.000
    Eu6      Eu       0.65309    0.00675    0.75299    1.000
    O21      O        0.70600    0.04920    0.85280    1.000
    O22      O        0.70920    0.95870    0.65770    1.000
    O23      O        0.79430    0.08260    0.91400    1.000
    O24      O        0.79690    0.91080    0.60650    1.000
    N6       N        0.78050    0.00050    0.75810    1.000
    C36      C        0.76870    0.05490    0.86430    1.000
    C37      C        0.77170    0.94560    0.65200    1.000
    C38      C        0.81590    0.97260    0.70720    1.000
    C39      C        0.81420    0.02570    0.81120    1.000
    C40      C        0.88510    0.97020    0.70700    1.000
    H16      H        0.90860    0.95080    0.67130    1.000
    C41      C        0.88400    0.02630    0.81330    1.000
    H17      H        0.90680    0.04590    0.84940    1.000
    C42      C        0.91880    0.99760    0.76150    1.000
    H18      H        0.96570    0.99640    0.76290    1.000
    Eu7      Eu       0.34691    0.50675    0.74701    1.000
    O25      O        0.29400    0.54920    0.64720    1.000
    O26      O        0.29080    0.45870    0.84230    1.000
    O27      O        0.20570    0.58260    0.58600    1.000
    O28      O        0.20310    0.41080    0.89350    1.000
    N7       N        0.21950    0.50050    0.74190    1.000
    C43      C        0.23130    0.55490    0.63570    1.000
    C44      C        0.22830    0.44560    0.84800    1.000
    C45      C        0.18410    0.47260    0.79280    1.000
    C46      C        0.18580    0.52570    0.68880    1.000
    C47      C        0.11490    0.47020    0.79300    1.000
    H19      H        0.09140    0.45080    0.82870    1.000
    C48      C        0.11600    0.52630    0.68670    1.000
    H20      H        0.09320    0.54590    0.65060    1.000
    C49      C        0.08120    0.49760    0.73850    1.000
    H21      H        0.03430    0.49640    0.73710    1.000
    Eu8      Eu       0.84691    0.99325    0.25299    1.000
    O29      O        0.79400    0.95080    0.35280    1.000
    O30      O        0.79080    0.04130    0.15770    1.000
    O31      O        0.70570    0.91740    0.41400    1.000
    O32      O        0.70310    0.08920    0.10650    1.000
    N8       N        0.71950    0.99950    0.25810    1.000
    C50      C        0.73130    0.94510    0.36430    1.000
    C51      C        0.72830    0.05440    0.15200    1.000
    C52      C        0.68410    0.02740    0.20720    1.000
    C53      C        0.68580    0.97430    0.31120    1.000
    C54      C        0.61490    0.02980    0.20700    1.000
    H22      H        0.59140    0.04920    0.17130    1.000
    C55      C        0.61600    0.97370    0.31330    1.000
    H23      H        0.59320    0.95410    0.34940    1.000
    C56      C        0.58120    0.00240    0.26150    1.000
    H24      H        0.53430    0.00360    0.26290    1.000
    Eu9      Eu       0.24701    0.15309    0.49325    1.000
    O33      O        0.14720    0.20600    0.45080    1.000
    O34      O        0.34230    0.20920    0.54130    1.000
    O35      O        0.08600    0.29430    0.41740    1.000
    O36      O        0.39350    0.29690    0.58920    1.000
    N9       N        0.24190    0.28050    0.49950    1.000
    C57      C        0.13570    0.26870    0.44510    1.000
    C58      C        0.34800    0.27170    0.55440    1.000
    C59      C        0.29280    0.31590    0.52740    1.000
    C60      C        0.18880    0.31420    0.47430    1.000
    C61      C        0.29300    0.38510    0.52980    1.000
    H25      H        0.32870    0.40860    0.54920    1.000
    C62      C        0.18670    0.38400    0.47370    1.000
    H26      H        0.15060    0.40680    0.45410    1.000
    C63      C        0.23850    0.41880    0.50240    1.000
    H27      H        0.23710    0.46570    0.50360    1.000
    Eu10     Eu       0.75299    0.65309    0.00675    1.000
    O37      O        0.85280    0.70600    0.04920    1.000
    O38      O        0.65770    0.70920    0.95870    1.000
    O39      O        0.91400    0.79430    0.08260    1.000
    O40      O        0.60650    0.79690    0.91080    1.000
    N10      N        0.75810    0.78050    0.00050    1.000
    C64      C        0.86430    0.76870    0.05490    1.000
    C65      C        0.65200    0.77170    0.94560    1.000
    C66      C        0.70720    0.81590    0.97260    1.000
    C67      C        0.81120    0.81420    0.02570    1.000
    C68      C        0.70700    0.88510    0.97020    1.000
    H28      H        0.67130    0.90860    0.95080    1.000
    C69      C        0.81330    0.88400    0.02630    1.000
    H29      H        0.84940    0.90680    0.04590    1.000
    C70      C        0.76150    0.91880    0.99760    1.000
    H30      H        0.76290    0.96570    0.99640    1.000
    Eu11     Eu       0.74701    0.34691    0.50675    1.000
    O41      O        0.64720    0.29400    0.54920    1.000
    O42      O        0.84230    0.29080    0.45870    1.000
    O43      O        0.58600    0.20570    0.58260    1.000
    O44      O        0.89350    0.20310    0.41080    1.000
    N11      N        0.74190    0.21950    0.50050    1.000
    C71      C        0.63570    0.23130    0.55490    1.000
    C72      C        0.84800    0.22830    0.44560    1.000
    C73      C        0.79280    0.18410    0.47260    1.000
    C74      C        0.68880    0.18580    0.52570    1.000
    C75      C        0.79300    0.11490    0.47020    1.000
    H31      H        0.82870    0.09140    0.45080    1.000
    C76      C        0.68670    0.11600    0.52630    1.000
    H32      H        0.65060    0.09320    0.54590    1.000
    C77      C        0.73850    0.08120    0.49760    1.000
    H33      H        0.73710    0.03430    0.49640    1.000
    Eu12     Eu       0.25299    0.84691    0.99325    1.000
    O45      O        0.35280    0.79400    0.95080    1.000
    O46      O        0.15770    0.79080    0.04130    1.000
    O47      O        0.41400    0.70570    0.91740    1.000
    O48      O        0.10650    0.70310    0.08920    1.000
    N12      N        0.25810    0.71950    0.99950    1.000
    C78      C        0.36430    0.73130    0.94510    1.000
    C79      C        0.15200    0.72830    0.05440    1.000
    C80      C        0.20720    0.68410    0.02740    1.000
    C81      C        0.31120    0.68580    0.97430    1.000
    C82      C        0.20700    0.61490    0.02980    1.000
    H34      H        0.17130    0.59140    0.04920    1.000
    C83      C        0.31330    0.61600    0.97370    1.000
    H35      H        0.34940    0.59320    0.95410    1.000
    C84      C        0.26150    0.58120    0.00240    1.000
    H36      H        0.26290    0.53430    0.00360    1.000
    Eu13     Eu       0.50675    0.75299    0.84691    1.000
    O49      O        0.54920    0.85280    0.79400    1.000
    O50      O        0.45870    0.65770    0.79080    1.000
    O51      O        0.58260    0.91400    0.70570    1.000
    O52      O        0.41080    0.60650    0.70310    1.000
    N13      N        0.50050    0.75810    0.71950    1.000
    C85      C        0.55490    0.86430    0.73130    1.000
    C86      C        0.44560    0.65200    0.72830    1.000
    C87      C        0.47260    0.70720    0.68410    1.000
    C88      C        0.52570    0.81120    0.68580    1.000
    C89      C        0.47020    0.70700    0.61490    1.000
    H37      H        0.45080    0.67130    0.59140    1.000
    C90      C        0.52630    0.81330    0.61600    1.000
    H38      H        0.54590    0.84940    0.59320    1.000
    C91      C        0.49760    0.76150    0.58120    1.000
    H39      H        0.49640    0.76290    0.53430    1.000
    Eu14     Eu       0.99325    0.24701    0.34691    1.000
    O53      O        0.95080    0.14720    0.29400    1.000
    O54      O        0.04130    0.34230    0.29080    1.000
    O55      O        0.91740    0.08600    0.20570    1.000
    O56      O        0.08920    0.39350    0.20310    1.000
    N14      N        0.99950    0.24190    0.21950    1.000
    C92      C        0.94510    0.13570    0.23130    1.000
    C93      C        0.05440    0.34800    0.22830    1.000
    C94      C        0.02740    0.29280    0.18410    1.000
    C95      C        0.97430    0.18880    0.18580    1.000
    C96      C        0.02980    0.29300    0.11490    1.000
    H40      H        0.04920    0.32870    0.09140    1.000
    C97      C        0.97370    0.18670    0.11600    1.000
    H41      H        0.95410    0.15060    0.09320    1.000
    C98      C        0.00240    0.23850    0.08120    1.000
    H42      H        0.00360    0.23710    0.03430    1.000
    Eu15     Eu       0.49325    0.25299    0.65309    1.000
    O57      O        0.45080    0.35280    0.70600    1.000
    O58      O        0.54130    0.15770    0.70920    1.000
    O59      O        0.41740    0.41400    0.79430    1.000
    O60      O        0.58920    0.10650    0.79690    1.000
    N15      N        0.49950    0.25810    0.78050    1.000
    C99      C        0.44510    0.36430    0.76870    1.000
    C100     C        0.55440    0.15200    0.77170    1.000
    C101     C        0.52740    0.20720    0.81590    1.000
    C102     C        0.47430    0.31120    0.81420    1.000
    C103     C        0.52980    0.20700    0.88510    1.000
    H43      H        0.54920    0.17130    0.90860    1.000
    C104     C        0.47370    0.31330    0.88400    1.000
    H44      H        0.45410    0.34940    0.90680    1.000
    C105     C        0.50240    0.26150    0.91880    1.000
    H45      H        0.50360    0.26290    0.96570    1.000
    Eu16     Eu       0.00675    0.74701    0.15309    1.000
    O61      O        0.04920    0.64720    0.20600    1.000
    O62      O        0.95870    0.84230    0.20920    1.000
    O63      O        0.08260    0.58600    0.29430    1.000
    O64      O        0.91080    0.89350    0.29690    1.000
    N16      N        0.00050    0.74190    0.28050    1.000
    C106     C        0.05490    0.63570    0.26870    1.000
    C107     C        0.94560    0.84800    0.27170    1.000
    C108     C        0.97260    0.79280    0.31590    1.000
    C109     C        0.02570    0.68880    0.31420    1.000
    C110     C        0.97020    0.79300    0.38510    1.000
    H46      H        0.95080    0.82870    0.40860    1.000
    C111     C        0.02630    0.68670    0.38400    1.000
    H47      H        0.04590    0.65060    0.40680    1.000
    C112     C        0.99760    0.73850    0.41880    1.000
    H48      H        0.99640    0.73710    0.46570    1.000
    Eu17     Eu       0.84691    0.50675    0.75299    1.000
    O65      O        0.79400    0.54920    0.85280    1.000
    O66      O        0.79080    0.45870    0.65770    1.000
    O67      O        0.70570    0.58260    0.91400    1.000
    O68      O        0.70310    0.41080    0.60650    1.000
    N17      N        0.71950    0.50050    0.75810    1.000
    C113     C        0.73130    0.55490    0.86430    1.000
    C114     C        0.72830    0.44560    0.65200    1.000
    C115     C        0.68410    0.47260    0.70720    1.000
    C116     C        0.68580    0.52570    0.81120    1.000
    C117     C        0.61490    0.47020    0.70700    1.000
    H49      H        0.59140    0.45080    0.67130    1.000
    C118     C        0.61600    0.52630    0.81330    1.000
    H50      H        0.59320    0.54590    0.84940    1.000
    C119     C        0.58120    0.49760    0.76150    1.000
    H51      H        0.53430    0.49640    0.76290    1.000
    Eu18     Eu       0.34691    0.99325    0.24701    1.000
    O69      O        0.29400    0.95080    0.14720    1.000
    O70      O        0.29080    0.04130    0.34230    1.000
    O71      O        0.20570    0.91740    0.08600    1.000
    O72      O        0.20310    0.08920    0.39350    1.000
    N18      N        0.21950    0.99950    0.24190    1.000
    C120     C        0.23130    0.94510    0.13570    1.000
    C121     C        0.22830    0.05440    0.34800    1.000
    C122     C        0.18410    0.02740    0.29280    1.000
    C123     C        0.18580    0.97430    0.18880    1.000
    C124     C        0.11490    0.02980    0.29300    1.000
    H52      H        0.09140    0.04920    0.32870    1.000
    C125     C        0.11600    0.97370    0.18670    1.000
    H53      H        0.09320    0.95410    0.15060    1.000
    C126     C        0.08120    0.00240    0.23850    1.000
    H54      H        0.03430    0.00360    0.23710    1.000
    Eu19     Eu       0.65309    0.49325    0.25299    1.000
    O73      O        0.70600    0.45080    0.35280    1.000
    O74      O        0.70920    0.54130    0.15770    1.000
    O75      O        0.79430    0.41740    0.41400    1.000
    O76      O        0.79690    0.58920    0.10650    1.000
    N19      N        0.78050    0.49950    0.25810    1.000
    C127     C        0.76870    0.44510    0.36430    1.000
    C128     C        0.77170    0.55440    0.15200    1.000
    C129     C        0.81590    0.52740    0.20720    1.000
    C130     C        0.81420    0.47430    0.31120    1.000
    C131     C        0.88510    0.52980    0.20700    1.000
    H55      H        0.90860    0.54920    0.17130    1.000
    C132     C        0.88400    0.47370    0.31330    1.000
    H56      H        0.90680    0.45410    0.34940    1.000
    C133     C        0.91880    0.50240    0.26150    1.000
    H57      H        0.96570    0.50360    0.26290    1.000
    Eu20     Eu       0.15309    0.00675    0.74701    1.000
    O77      O        0.20600    0.04920    0.64720    1.000
    O78      O        0.20920    0.95870    0.84230    1.000
    O79      O        0.29430    0.08260    0.58600    1.000
    O80      O        0.29690    0.91080    0.89350    1.000
    N20      N        0.28050    0.00050    0.74190    1.000
    C134     C        0.26870    0.05490    0.63570    1.000
    C135     C        0.27170    0.94560    0.84800    1.000
    C136     C        0.31590    0.97260    0.79280    1.000
    C137     C        0.31420    0.02570    0.68880    1.000
    C138     C        0.38510    0.97020    0.79300    1.000
    H58      H        0.40860    0.95080    0.82870    1.000
    C139     C        0.38400    0.02630    0.68670    1.000
    H59      H        0.40680    0.04590    0.65060    1.000
    C140     C        0.41880    0.99760    0.73850    1.000
    H60      H        0.46570    0.99640    0.73710    1.000
    Eu21     Eu       0.75299    0.84691    0.50675    1.000
    O81      O        0.85280    0.79400    0.54920    1.000
    O82      O        0.65770    0.79080    0.45870    1.000
    O83      O        0.91400    0.70570    0.58260    1.000
    O84      O        0.60650    0.70310    0.41080    1.000
    N21      N        0.75810    0.71950    0.50050    1.000
    C141     C        0.86430    0.73130    0.55490    1.000
    C142     C        0.65200    0.72830    0.44560    1.000
    C143     C        0.70720    0.68410    0.47260    1.000
    C144     C        0.81120    0.68580    0.52570    1.000
    C145     C        0.70700    0.61490    0.47020    1.000
    H61      H        0.67130    0.59140    0.45080    1.000
    C146     C        0.81330    0.61600    0.52630    1.000
    H62      H        0.84940    0.59320    0.54590    1.000
    C147     C        0.76150    0.58120    0.49760    1.000
    H63      H        0.76290    0.53430    0.49640    1.000
    Eu22     Eu       0.24701    0.34691    0.99325    1.000
    O85      O        0.14720    0.29400    0.95080    1.000
    O86      O        0.34230    0.29080    0.04130    1.000
    O87      O        0.08600    0.20570    0.91740    1.000
    O88      O        0.39350    0.20310    0.08920    1.000
    N22      N        0.24190    0.21950    0.99950    1.000
    C148     C        0.13570    0.23130    0.94510    1.000
    C149     C        0.34800    0.22830    0.05440    1.000
    C150     C        0.29280    0.18410    0.02740    1.000
    C151     C        0.18880    0.18580    0.97430    1.000
    C152     C        0.29300    0.11490    0.02980    1.000
    H64      H        0.32870    0.09140    0.04920    1.000
    C153     C        0.18670    0.11600    0.97370    1.000
    H65      H        0.15060    0.09320    0.95410    1.000
    C154     C        0.23850    0.08120    0.00240    1.000
    H66      H        0.23710    0.03430    0.00360    1.000
    Eu23     Eu       0.25299    0.65309    0.49325    1.000
    O89      O        0.35280    0.70600    0.45080    1.000
    O90      O        0.15770    0.70920    0.54130    1.000
    O91      O        0.41400    0.79430    0.41740    1.000
    O92      O        0.10650    0.79690    0.58920    1.000
    N23      N        0.25810    0.78050    0.49950    1.000
    C155     C        0.36430    0.76870    0.44510    1.000
    C156     C        0.15200    0.77170    0.55440    1.000
    C157     C        0.20720    0.81590    0.52740    1.000
    C158     C        0.31120    0.81420    0.47430    1.000
    C159     C        0.20700    0.88510    0.52980    1.000
    H67      H        0.17130    0.90860    0.54920    1.000
    C160     C        0.31330    0.88400    0.47370    1.000
    H68      H        0.34940    0.90680    0.45410    1.000
    C161     C        0.26150    0.91880    0.50240    1.000
    H69      H        0.26290    0.96570    0.50360    1.000
    Eu24     Eu       0.74701    0.15309    0.00675    1.000
    O93      O        0.64720    0.20600    0.04920    1.000
    O94      O        0.84230    0.20920    0.95870    1.000
    O95      O        0.58600    0.29430    0.08260    1.000
    O96      O        0.89350    0.29690    0.91080    1.000
    N24      N        0.74190    0.28050    0.00050    1.000
    C162     C        0.63570    0.26870    0.05490    1.000
    C163     C        0.84800    0.27170    0.94560    1.000
    C164     C        0.79280    0.31590    0.97260    1.000
    C165     C        0.68880    0.31420    0.02570    1.000
    C166     C        0.79300    0.38510    0.97020    1.000
    H70      H        0.82870    0.40860    0.95080    1.000
    C167     C        0.68670    0.38400    0.02630    1.000
    H71      H        0.65060    0.40680    0.04590    1.000
    C168     C        0.73850    0.41880    0.99760    1.000
    H72      H        0.73710    0.46570    0.99640    1.000
