# CIF file generated by openbabel 3.1.0, see https://openbabel.org
data_I
_chemical_name_common 'image0'
_cell_length_a 28.795
_cell_length_b 9.5078
_cell_length_c 27.7363
_cell_angle_alpha 90
_cell_angle_beta 92.594
_cell_angle_gamma 90
_space_group_name_H-M_alt 'P 1'
_space_group_name_Hall 'P 1'
loop_
    _symmetry_equiv_pos_as_xyz
    x,y,z
loop_
    _atom_site_label
    _atom_site_type_symbol
    _atom_site_fract_x
    _atom_site_fract_y
    _atom_site_fract_z
    _atom_site_occupancy
    Bi1      Bi       0.89990    0.41667    0.97784    1.000
    O1       O        0.92840    0.49670    0.05170    1.000
    O2       O        0.93510    0.70030    0.09260    1.000
    O3       O        0.92920    0.62050    0.96680    1.000
    O4       O        0.83950    0.58110    0.00780    1.000
    O5       O        0.80970    0.76860    0.03950    1.000
    O6       O        0.04850    0.79200    0.98010    1.000
    O7       O        0.02540    0.65100    0.03640    1.000
    C1       C        0.93240    0.63180    0.05390    1.000
    C2       C        0.92920    0.71380    0.00580    1.000
    C3       C        0.96990    0.81630    0.00390    1.000
    H1       H        0.96650    0.87010    0.97430    1.000
    H2       H        0.96820    0.88180    0.03060    1.000
    C4       C        0.88410    0.79610    0.00530    1.000
    H3       H        0.87840    0.83540    0.97330    1.000
    H4       H        0.88790    0.87400    0.02770    1.000
    C5       C        0.84130    0.71080    0.01850    1.000
    C6       C        0.01700    0.74990    0.00630    1.000
    Bi2      Bi       0.10010    0.58333    0.02216    1.000
    O8       O        0.07160    0.50330    0.94830    1.000
    O9       O        0.06490    0.29970    0.90740    1.000
    O10      O        0.07080    0.37950    0.03320    1.000
    O11      O        0.16050    0.41890    0.99220    1.000
    O12      O        0.19030    0.23140    0.96050    1.000
    O13      O        0.95150    0.20800    0.01990    1.000
    O14      O        0.97460    0.34900    0.96360    1.000
    C7       C        0.06760    0.36820    0.94610    1.000
    C8       C        0.07080    0.28620    0.99420    1.000
    C9       C        0.03010    0.18370    0.99610    1.000
    H5       H        0.03350    0.12990    0.02570    1.000
    H6       H        0.03180    0.11820    0.96940    1.000
    C10      C        0.11590    0.20390    0.99470    1.000
    H7       H        0.12160    0.16460    0.02670    1.000
    H8       H        0.11210    0.12600    0.97230    1.000
    C11      C        0.15870    0.28920    0.98150    1.000
    C12      C        0.98300    0.25010    0.99370    1.000
    Bi3      Bi       0.75365    0.55053    0.99785    1.000
    O15      O        0.68720    0.43420    0.00960    1.000
    O16      O        0.64600    0.34700    0.06830    1.000
    O17      O        0.76630    0.44170    0.06510    1.000
    O18      O        0.71080    0.69350    0.06510    1.000
    O19      O        0.69860    0.75440    0.14010    1.000
    O20      O        0.76860    0.04370    0.09160    1.000
    O21      O        0.72170    0.14860    0.03760    1.000
    C13      C        0.68240    0.39670    0.05340    1.000
    C14      C        0.72550    0.40560    0.08850    1.000
    C15      C        0.73280    0.26280    0.11370    1.000
    H9       H        0.75890    0.27030    0.13700    1.000
    H10      H        0.70540    0.24040    0.13120    1.000
    C16      C        0.71570    0.51630    0.12690    1.000
    H11      H        0.68780    0.48930    0.14300    1.000
    H12      H        0.74130    0.51660    0.15090    1.000
    C17      C        0.70930    0.66390    0.10720    1.000
    C18      C        0.74220    0.14330    0.07880    1.000
    Bi4      Bi       0.74635    0.94947    0.00215    1.000
    O22      O        0.81280    0.06580    0.99040    1.000
    O23      O        0.85400    0.15300    0.93170    1.000
    O24      O        0.73370    0.05830    0.93490    1.000
    O25      O        0.78920    0.80650    0.93490    1.000
    O26      O        0.80140    0.74560    0.85990    1.000
    O27      O        0.73140    0.45630    0.90840    1.000
    O28      O        0.77830    0.35140    0.96240    1.000
    C19      C        0.81760    0.10330    0.94660    1.000
    C20      C        0.77450    0.09440    0.91150    1.000
    C21      C        0.76720    0.23720    0.88630    1.000
    H13      H        0.74110    0.22970    0.86300    1.000
    H14      H        0.79460    0.25960    0.86880    1.000
    C22      C        0.78430    0.98370    0.87310    1.000
    H15      H        0.81220    0.01070    0.85700    1.000
    H16      H        0.75870    0.98340    0.84910    1.000
    C23      C        0.79070    0.83610    0.89280    1.000
    C24      C        0.75780    0.35670    0.92120    1.000
    Bi5      Bi       0.01101    0.58766    0.14321    1.000
    Bi6      Bi       0.98899    0.58766    0.35679    1.000
    O29      O        0.05340    0.76150    0.18580    1.000
    O30      O        0.12250    0.78520    0.22240    1.000
    O31      O        0.05090    0.48810    0.19790    1.000
    O32      O        0.15810    0.47830    0.10320    1.000
    O33      O        0.09110    0.58010    0.11080    1.000
    O34      O        0.04670    0.44600    0.32230    1.000
    O35      O        0.04400    0.66380    0.29600    1.000
    C25      C        0.09060    0.71300    0.20800    1.000
    C26      C        0.09230    0.55620    0.21290    1.000
    C27      C        0.10310    0.51600    0.26400    1.000
    H17      H        0.10980    0.41590    0.26590    1.000
    H18      H        0.13030    0.56660    0.27630    1.000
    C28      C        0.13300    0.49640    0.18220    1.000
    H19      H        0.13580    0.39620    0.18810    1.000
    H20      H        0.16200    0.53980    0.19370    1.000
    C29      C        0.12720    0.51970    0.12870    1.000
    C30      C        0.06040    0.55100    0.29600    1.000
    O36      O        0.94660    0.76150    0.31420    1.000
    O37      O        0.87750    0.78520    0.27760    1.000
    O38      O        0.94910    0.48810    0.30210    1.000
    O39      O        0.84190    0.47830    0.39680    1.000
    O40      O        0.90890    0.58010    0.38920    1.000
    O41      O        0.95330    0.44600    0.17770    1.000
    O42      O        0.95600    0.66380    0.20400    1.000
    C31      C        0.90940    0.71300    0.29200    1.000
    C32      C        0.90770    0.55620    0.28710    1.000
    C33      C        0.89690    0.51600    0.23600    1.000
    H21      H        0.89020    0.41590    0.23410    1.000
    H22      H        0.86970    0.56660    0.22370    1.000
    C34      C        0.86700    0.49640    0.31780    1.000
    H23      H        0.86420    0.39620    0.31190    1.000
    H24      H        0.83800    0.53980    0.30630    1.000
    C35      C        0.87280    0.51970    0.37130    1.000
    C36      C        0.93960    0.55100    0.20400    1.000
    O43      O        0.94660    0.23850    0.81420    1.000
    O44      O        0.87750    0.21480    0.77760    1.000
    O45      O        0.94910    0.51190    0.80210    1.000
    O46      O        0.84190    0.52170    0.89680    1.000
    O47      O        0.90890    0.41990    0.88920    1.000
    O48      O        0.95330    0.55400    0.67770    1.000
    O49      O        0.95600    0.33620    0.70400    1.000
    C37      C        0.90940    0.28700    0.79200    1.000
    C38      C        0.90770    0.44380    0.78710    1.000
    C39      C        0.89690    0.48400    0.73600    1.000
    H25      H        0.89020    0.58410    0.73410    1.000
    H26      H        0.86970    0.43340    0.72370    1.000
    C40      C        0.86700    0.50360    0.81780    1.000
    H27      H        0.86420    0.60380    0.81190    1.000
    H28      H        0.83800    0.46020    0.80630    1.000
    C41      C        0.87280    0.48030    0.87130    1.000
    C42      C        0.93960    0.44900    0.70400    1.000
    O50      O        0.05340    0.23850    0.68580    1.000
    O51      O        0.12250    0.21480    0.72240    1.000
    O52      O        0.05090    0.51190    0.69790    1.000
    O53      O        0.15810    0.52170    0.60320    1.000
    O54      O        0.09110    0.41990    0.61080    1.000
    O55      O        0.04670    0.55400    0.82230    1.000
    O56      O        0.04400    0.33620    0.79600    1.000
    C43      C        0.09060    0.28700    0.70800    1.000
    C44      C        0.09230    0.44380    0.71290    1.000
    C45      C        0.10310    0.48400    0.76400    1.000
    H29      H        0.10980    0.58410    0.76590    1.000
    H30      H        0.13030    0.43340    0.77630    1.000
    C46      C        0.13300    0.50360    0.68220    1.000
    H31      H        0.13580    0.60380    0.68810    1.000
    H32      H        0.16200    0.46020    0.69370    1.000
    C47      C        0.12720    0.48030    0.62870    1.000
    C48      C        0.06040    0.44900    0.79600    1.000
    Bi7      Bi       0.98899    0.41234    0.85679    1.000
    Bi8      Bi       0.01101    0.41234    0.64321    1.000
    Bi9      Bi       0.39990    0.91667    0.97784    1.000
    O57      O        0.42840    0.99670    0.05170    1.000
    O58      O        0.43510    0.20030    0.09260    1.000
    O59      O        0.42920    0.12050    0.96680    1.000
    O60      O        0.33950    0.08110    0.00780    1.000
    O61      O        0.30970    0.26860    0.03950    1.000
    O62      O        0.54850    0.29200    0.98010    1.000
    O63      O        0.52540    0.15100    0.03640    1.000
    C49      C        0.43240    0.13180    0.05390    1.000
    C50      C        0.42920    0.21380    0.00580    1.000
    C51      C        0.46990    0.31630    0.00390    1.000
    H33      H        0.46650    0.37010    0.97430    1.000
    H34      H        0.46820    0.38180    0.03060    1.000
    C52      C        0.38410    0.29610    0.00530    1.000
    H35      H        0.37840    0.33540    0.97330    1.000
    H36      H        0.38790    0.37400    0.02770    1.000
    C53      C        0.34130    0.21080    0.01850    1.000
    C54      C        0.51700    0.24990    0.00630    1.000
    Bi10     Bi       0.60010    0.08333    0.02216    1.000
    O64      O        0.57160    0.00330    0.94830    1.000
    O65      O        0.56490    0.79970    0.90740    1.000
    O66      O        0.57080    0.87950    0.03320    1.000
    O67      O        0.66050    0.91890    0.99220    1.000
    O68      O        0.69030    0.73140    0.96050    1.000
    O69      O        0.45150    0.70800    0.01990    1.000
    O70      O        0.47460    0.84900    0.96360    1.000
    C55      C        0.56760    0.86820    0.94610    1.000
    C56      C        0.57080    0.78620    0.99420    1.000
    C57      C        0.53010    0.68370    0.99610    1.000
    H37      H        0.53350    0.62990    0.02570    1.000
    H38      H        0.53180    0.61820    0.96940    1.000
    C58      C        0.61590    0.70390    0.99470    1.000
    H39      H        0.62160    0.66460    0.02670    1.000
    H40      H        0.61210    0.62600    0.97230    1.000
    C59      C        0.65870    0.78920    0.98150    1.000
    C60      C        0.48300    0.75010    0.99370    1.000
    Bi11     Bi       0.25365    0.05053    0.99785    1.000
    O71      O        0.18720    0.93420    0.00960    1.000
    O72      O        0.14600    0.84700    0.06830    1.000
    O73      O        0.26630    0.94170    0.06510    1.000
    O74      O        0.21080    0.19350    0.06510    1.000
    O75      O        0.19860    0.25440    0.14010    1.000
    O76      O        0.26860    0.54370    0.09160    1.000
    O77      O        0.22170    0.64860    0.03760    1.000
    C61      C        0.18240    0.89670    0.05340    1.000
    C62      C        0.22550    0.90560    0.08850    1.000
    C63      C        0.23280    0.76280    0.11370    1.000
    H41      H        0.25890    0.77030    0.13700    1.000
    H42      H        0.20540    0.74040    0.13120    1.000
    C64      C        0.21570    0.01630    0.12690    1.000
    H43      H        0.18780    0.98930    0.14300    1.000
    H44      H        0.24130    0.01660    0.15090    1.000
    C65      C        0.20930    0.16390    0.10720    1.000
    C66      C        0.24220    0.64330    0.07880    1.000
    Bi12     Bi       0.24635    0.44947    0.00215    1.000
    O78      O        0.31280    0.56580    0.99040    1.000
    O79      O        0.35400    0.65300    0.93170    1.000
    O80      O        0.23370    0.55830    0.93490    1.000
    O81      O        0.28920    0.30650    0.93490    1.000
    O82      O        0.30140    0.24560    0.85990    1.000
    O83      O        0.23140    0.95630    0.90840    1.000
    O84      O        0.27830    0.85140    0.96240    1.000
    C67      C        0.31760    0.60330    0.94660    1.000
    C68      C        0.27450    0.59440    0.91150    1.000
    C69      C        0.26720    0.73720    0.88630    1.000
    H45      H        0.24110    0.72970    0.86300    1.000
    H46      H        0.29460    0.75960    0.86880    1.000
    C70      C        0.28430    0.48370    0.87310    1.000
    H47      H        0.31220    0.51070    0.85700    1.000
    H48      H        0.25870    0.48340    0.84910    1.000
    C71      C        0.29070    0.33610    0.89280    1.000
    C72      C        0.25780    0.85670    0.92120    1.000
    Bi13     Bi       0.51101    0.08766    0.14321    1.000
    Bi14     Bi       0.48899    0.08766    0.35679    1.000
    O85      O        0.55340    0.26150    0.18580    1.000
    O86      O        0.62250    0.28520    0.22240    1.000
    O87      O        0.55090    0.98810    0.19790    1.000
    O88      O        0.65810    0.97830    0.10320    1.000
    O89      O        0.59110    0.08010    0.11080    1.000
    O90      O        0.54670    0.94600    0.32230    1.000
    O91      O        0.54400    0.16380    0.29600    1.000
    C73      C        0.59060    0.21300    0.20800    1.000
    C74      C        0.59230    0.05620    0.21290    1.000
    C75      C        0.60310    0.01600    0.26400    1.000
    H49      H        0.60980    0.91590    0.26590    1.000
    H50      H        0.63030    0.06660    0.27630    1.000
    C76      C        0.63300    0.99640    0.18220    1.000
    H51      H        0.63580    0.89620    0.18810    1.000
    H52      H        0.66200    0.03980    0.19370    1.000
    C77      C        0.62720    0.01970    0.12870    1.000
    C78      C        0.56040    0.05100    0.29600    1.000
    O92      O        0.44660    0.26150    0.31420    1.000
    O93      O        0.37750    0.28520    0.27760    1.000
    O94      O        0.44910    0.98810    0.30210    1.000
    O95      O        0.34190    0.97830    0.39680    1.000
    O96      O        0.40890    0.08010    0.38920    1.000
    O97      O        0.45330    0.94600    0.17770    1.000
    O98      O        0.45600    0.16380    0.20400    1.000
    C79      C        0.40940    0.21300    0.29200    1.000
    C80      C        0.40770    0.05620    0.28710    1.000
    C81      C        0.39690    0.01600    0.23600    1.000
    H53      H        0.39020    0.91590    0.23410    1.000
    H54      H        0.36970    0.06660    0.22370    1.000
    C82      C        0.36700    0.99640    0.31780    1.000
    H55      H        0.36420    0.89620    0.31190    1.000
    H56      H        0.33800    0.03980    0.30630    1.000
    C83      C        0.37280    0.01970    0.37130    1.000
    C84      C        0.43960    0.05100    0.20400    1.000
    O99      O        0.44660    0.73850    0.81420    1.000
    O100     O        0.37750    0.71480    0.77760    1.000
    O101     O        0.44910    0.01190    0.80210    1.000
    O102     O        0.34190    0.02170    0.89680    1.000
    O103     O        0.40890    0.91990    0.88920    1.000
    O104     O        0.45330    0.05400    0.67770    1.000
    O105     O        0.45600    0.83620    0.70400    1.000
    C85      C        0.40940    0.78700    0.79200    1.000
    C86      C        0.40770    0.94380    0.78710    1.000
    C87      C        0.39690    0.98400    0.73600    1.000
    H57      H        0.39020    0.08410    0.73410    1.000
    H58      H        0.36970    0.93340    0.72370    1.000
    C88      C        0.36700    0.00360    0.81780    1.000
    H59      H        0.36420    0.10380    0.81190    1.000
    H60      H        0.33800    0.96020    0.80630    1.000
    C89      C        0.37280    0.98030    0.87130    1.000
    C90      C        0.43960    0.94900    0.70400    1.000
    O106     O        0.55340    0.73850    0.68580    1.000
    O107     O        0.62250    0.71480    0.72240    1.000
    O108     O        0.55090    0.01190    0.69790    1.000
    O109     O        0.65810    0.02170    0.60320    1.000
    O110     O        0.59110    0.91990    0.61080    1.000
    O111     O        0.54670    0.05400    0.82230    1.000
    O112     O        0.54400    0.83620    0.79600    1.000
    C91      C        0.59060    0.78700    0.70800    1.000
    C92      C        0.59230    0.94380    0.71290    1.000
    C93      C        0.60310    0.98400    0.76400    1.000
    H61      H        0.60980    0.08410    0.76590    1.000
    H62      H        0.63030    0.93340    0.77630    1.000
    C94      C        0.63300    0.00360    0.68220    1.000
    H63      H        0.63580    0.10380    0.68810    1.000
    H64      H        0.66200    0.96020    0.69370    1.000
    C95      C        0.62720    0.98030    0.62870    1.000
    C96      C        0.56040    0.94900    0.79600    1.000
    Bi15     Bi       0.48899    0.91234    0.85679    1.000
    Bi16     Bi       0.51101    0.91234    0.64321    1.000
    Bi17     Bi       0.10010    0.41667    0.52216    1.000
    O113     O        0.07160    0.49670    0.44830    1.000
    O114     O        0.06490    0.70030    0.40740    1.000
    O115     O        0.07080    0.62050    0.53320    1.000
    O116     O        0.16050    0.58110    0.49220    1.000
    O117     O        0.19030    0.76860    0.46050    1.000
    O118     O        0.95150    0.79200    0.51990    1.000
    O119     O        0.97460    0.65100    0.46360    1.000
    C97      C        0.06760    0.63180    0.44610    1.000
    C98      C        0.07080    0.71380    0.49420    1.000
    C99      C        0.03010    0.81630    0.49610    1.000
    H65      H        0.03350    0.87010    0.52570    1.000
    H66      H        0.03180    0.88180    0.46940    1.000
    C100     C        0.11590    0.79610    0.49470    1.000
    H67      H        0.12160    0.83540    0.52670    1.000
    H68      H        0.11210    0.87400    0.47230    1.000
    C101     C        0.15870    0.71080    0.48150    1.000
    C102     C        0.98300    0.74990    0.49370    1.000
    Bi18     Bi       0.89990    0.58333    0.47784    1.000
    O120     O        0.92840    0.50330    0.55170    1.000
    O121     O        0.93510    0.29970    0.59260    1.000
    O122     O        0.92920    0.37950    0.46680    1.000
    O123     O        0.83950    0.41890    0.50780    1.000
    O124     O        0.80970    0.23140    0.53950    1.000
    O125     O        0.04850    0.20800    0.48010    1.000
    O126     O        0.02540    0.34900    0.53640    1.000
    C103     C        0.93240    0.36820    0.55390    1.000
    C104     C        0.92920    0.28620    0.50580    1.000
    C105     C        0.96990    0.18370    0.50390    1.000
    H69      H        0.96650    0.12990    0.47430    1.000
    H70      H        0.96820    0.11820    0.53060    1.000
    C106     C        0.88410    0.20390    0.50530    1.000
    H71      H        0.87840    0.16460    0.47330    1.000
    H72      H        0.88790    0.12600    0.52770    1.000
    C107     C        0.84130    0.28920    0.51850    1.000
    C108     C        0.01700    0.25010    0.50630    1.000
    Bi19     Bi       0.24635    0.55053    0.50215    1.000
    O127     O        0.31280    0.43420    0.49040    1.000
    O128     O        0.35400    0.34700    0.43170    1.000
    O129     O        0.23370    0.44170    0.43490    1.000
    O130     O        0.28920    0.69350    0.43490    1.000
    O131     O        0.30140    0.75440    0.35990    1.000
    O132     O        0.23140    0.04370    0.40840    1.000
    O133     O        0.27830    0.14860    0.46240    1.000
    C109     C        0.31760    0.39670    0.44660    1.000
    C110     C        0.27450    0.40560    0.41150    1.000
    C111     C        0.26720    0.26280    0.38630    1.000
    H73      H        0.24110    0.27030    0.36300    1.000
    H74      H        0.29460    0.24040    0.36880    1.000
    C112     C        0.28430    0.51630    0.37310    1.000
    H75      H        0.31220    0.48930    0.35700    1.000
    H76      H        0.25870    0.51660    0.34910    1.000
    C113     C        0.29070    0.66390    0.39280    1.000
    C114     C        0.25780    0.14330    0.42120    1.000
    Bi20     Bi       0.25365    0.94947    0.49785    1.000
    O134     O        0.18720    0.06580    0.50960    1.000
    O135     O        0.14600    0.15300    0.56830    1.000
    O136     O        0.26630    0.05830    0.56510    1.000
    O137     O        0.21080    0.80650    0.56510    1.000
    O138     O        0.19860    0.74560    0.64010    1.000
    O139     O        0.26860    0.45630    0.59160    1.000
    O140     O        0.22170    0.35140    0.53760    1.000
    C115     C        0.18240    0.10330    0.55340    1.000
    C116     C        0.22550    0.09440    0.58850    1.000
    C117     C        0.23280    0.23720    0.61370    1.000
    H77      H        0.25890    0.22970    0.63700    1.000
    H78      H        0.20540    0.25960    0.63120    1.000
    C118     C        0.21570    0.98370    0.62690    1.000
    H79      H        0.18780    0.01070    0.64300    1.000
    H80      H        0.24130    0.98340    0.65090    1.000
    C119     C        0.20930    0.83610    0.60720    1.000
    C120     C        0.24220    0.35670    0.57880    1.000
    Bi21     Bi       0.60010    0.91667    0.52216    1.000
    O141     O        0.57160    0.99670    0.44830    1.000
    O142     O        0.56490    0.20030    0.40740    1.000
    O143     O        0.57080    0.12050    0.53320    1.000
    O144     O        0.66050    0.08110    0.49220    1.000
    O145     O        0.69030    0.26860    0.46050    1.000
    O146     O        0.45150    0.29200    0.51990    1.000
    O147     O        0.47460    0.15100    0.46360    1.000
    C121     C        0.56760    0.13180    0.44610    1.000
    C122     C        0.57080    0.21380    0.49420    1.000
    C123     C        0.53010    0.31630    0.49610    1.000
    H81      H        0.53350    0.37010    0.52570    1.000
    H82      H        0.53180    0.38180    0.46940    1.000
    C124     C        0.61590    0.29610    0.49470    1.000
    H83      H        0.62160    0.33540    0.52670    1.000
    H84      H        0.61210    0.37400    0.47230    1.000
    C125     C        0.65870    0.21080    0.48150    1.000
    C126     C        0.48300    0.24990    0.49370    1.000
    Bi22     Bi       0.39990    0.08333    0.47784    1.000
    O148     O        0.42840    0.00330    0.55170    1.000
    O149     O        0.43510    0.79970    0.59260    1.000
    O150     O        0.42920    0.87950    0.46680    1.000
    O151     O        0.33950    0.91890    0.50780    1.000
    O152     O        0.30970    0.73140    0.53950    1.000
    O153     O        0.54850    0.70800    0.48010    1.000
    O154     O        0.52540    0.84900    0.53640    1.000
    C127     C        0.43240    0.86820    0.55390    1.000
    C128     C        0.42920    0.78620    0.50580    1.000
    C129     C        0.46990    0.68370    0.50390    1.000
    H85      H        0.46650    0.62990    0.47430    1.000
    H86      H        0.46820    0.61820    0.53060    1.000
    C130     C        0.38410    0.70390    0.50530    1.000
    H87      H        0.37840    0.66460    0.47330    1.000
    H88      H        0.38790    0.62600    0.52770    1.000
    C131     C        0.34130    0.78920    0.51850    1.000
    C132     C        0.51700    0.75010    0.50630    1.000
    Bi23     Bi       0.74635    0.05053    0.50215    1.000
    O155     O        0.81280    0.93420    0.49040    1.000
    O156     O        0.85400    0.84700    0.43170    1.000
    O157     O        0.73370    0.94170    0.43490    1.000
    O158     O        0.78920    0.19350    0.43490    1.000
    O159     O        0.80140    0.25440    0.35990    1.000
    O160     O        0.73140    0.54370    0.40840    1.000
    O161     O        0.77830    0.64860    0.46240    1.000
    C133     C        0.81760    0.89670    0.44660    1.000
    C134     C        0.77450    0.90560    0.41150    1.000
    C135     C        0.76720    0.76280    0.38630    1.000
    H89      H        0.74110    0.77030    0.36300    1.000
    H90      H        0.79460    0.74040    0.36880    1.000
    C136     C        0.78430    0.01630    0.37310    1.000
    H91      H        0.81220    0.98930    0.35700    1.000
    H92      H        0.75870    0.01660    0.34910    1.000
    C137     C        0.79070    0.16390    0.39280    1.000
    C138     C        0.75780    0.64330    0.42120    1.000
    Bi24     Bi       0.75365    0.44947    0.49785    1.000
    O162     O        0.68720    0.56580    0.50960    1.000
    O163     O        0.64600    0.65300    0.56830    1.000
    O164     O        0.76630    0.55830    0.56510    1.000
    O165     O        0.71080    0.30650    0.56510    1.000
    O166     O        0.69860    0.24560    0.64010    1.000
    O167     O        0.76860    0.95630    0.59160    1.000
    O168     O        0.72170    0.85140    0.53760    1.000
    C139     C        0.68240    0.60330    0.55340    1.000
    C140     C        0.72550    0.59440    0.58850    1.000
    C141     C        0.73280    0.73720    0.61370    1.000
    H93      H        0.75890    0.72970    0.63700    1.000
    H94      H        0.70540    0.75960    0.63120    1.000
    C142     C        0.71570    0.48370    0.62690    1.000
    H95      H        0.68780    0.51070    0.64300    1.000
    H96      H        0.74130    0.48340    0.65090    1.000
    C143     C        0.70930    0.33610    0.60720    1.000
    C144     C        0.74220    0.85670    0.57880    1.000
