# CIF file generated by openbabel 3.1.0, see https://openbabel.org
data_I
_chemical_name_common 'image0'
_cell_length_a 22.8823
_cell_length_b 18.4474
_cell_length_c 9.6823
_cell_angle_alpha 90
_cell_angle_beta 95.477
_cell_angle_gamma 90
_space_group_name_H-M_alt 'P 1'
_space_group_name_Hall 'P 1'
loop_
    _symmetry_equiv_pos_as_xyz
    x,y,z
loop_
    _atom_site_label
    _atom_site_type_symbol
    _atom_site_fract_x
    _atom_site_fract_y
    _atom_site_fract_z
    _atom_site_occupancy
    Zn1      Zn       0.08458    0.03345    0.01854    1.000
    O1       O        0.04195    0.04290    0.18154    1.000
    O2       O        0.96696    0.94331    0.14327    1.000
    O3       O        0.13510    0.11851    0.05198    1.000
    O4       O        0.18616    0.07622    0.88610    1.000
    O5       O        0.27764    0.06813    0.13000    1.000
    O6       O        0.35022    0.09485    0.00140    1.000
    C1       C        0.19009    0.25528    0.97040    1.000
    C2       C        0.21521    0.18758    0.99270    1.000
    C3       C        0.27596    0.18255    0.02450    1.000
    C4       C        0.17675    0.12100    0.97430    1.000
    C5       C        0.30501    0.11027    0.05040    1.000
    C6       C        0.14990    0.91346    0.89970    1.000
    C7       C        0.16711    0.84381    0.87860    1.000
    C8       C        0.15465    0.78921    0.96960    1.000
    C9       C        0.12601    0.80993    0.08300    1.000
    C10      C        0.10988    0.88137    0.09860    1.000
    C11      C        0.17034    0.71250    0.94780    1.000
    C12      C        0.20560    0.69134    0.84780    1.000
    C13      C        0.21811    0.61923    0.82750    1.000
    C14      C        0.16500    0.58700    0.00110    1.000
    C15      C        0.15040    0.65789    0.02710    1.000
    N1       N        0.12038    0.93288    0.00750    1.000
    N2       N        0.19759    0.56777    0.90270    1.000
    H1       H        0.14530    0.25820    0.94690    1.000
    H2       H        0.15970    0.95000    0.83560    1.000
    H3       H        0.18800    0.83260    0.79990    1.000
    H4       H        0.11720    0.77440    0.15010    1.000
    H5       H        0.09000    0.89490    0.17920    1.000
    H6       H        0.22230    0.72790    0.79060    1.000
    H7       H        0.24270    0.60620    0.75490    1.000
    H8       H        0.15180    0.54860    0.06160    1.000
    H9       H        0.12770    0.66960    0.10480    1.000
    H10      H        0.20570    0.51990    0.88780    1.000
    Zn2      Zn       0.58458    0.53345    0.01854    1.000
    O7       O        0.54195    0.54290    0.18154    1.000
    O8       O        0.46696    0.44331    0.14327    1.000
    O9       O        0.63510    0.61851    0.05198    1.000
    O10      O        0.68616    0.57622    0.88610    1.000
    O11      O        0.77764    0.56813    0.13000    1.000
    O12      O        0.85022    0.59485    0.00140    1.000
    C16      C        0.69009    0.75528    0.97040    1.000
    C17      C        0.71521    0.68758    0.99270    1.000
    C18      C        0.77596    0.68255    0.02450    1.000
    C19      C        0.67675    0.62100    0.97430    1.000
    C20      C        0.80501    0.61027    0.05040    1.000
    C21      C        0.64990    0.41346    0.89970    1.000
    C22      C        0.66711    0.34381    0.87860    1.000
    C23      C        0.65465    0.28921    0.96960    1.000
    C24      C        0.62601    0.30993    0.08300    1.000
    C25      C        0.60988    0.38137    0.09860    1.000
    C26      C        0.67034    0.21250    0.94780    1.000
    C27      C        0.70560    0.19134    0.84780    1.000
    C28      C        0.71811    0.11923    0.82750    1.000
    C29      C        0.66500    0.08700    0.00110    1.000
    C30      C        0.65040    0.15789    0.02710    1.000
    N3       N        0.62038    0.43288    0.00750    1.000
    N4       N        0.69759    0.06777    0.90270    1.000
    H11      H        0.64530    0.75820    0.94690    1.000
    H12      H        0.65970    0.45000    0.83560    1.000
    H13      H        0.68800    0.33260    0.79990    1.000
    H14      H        0.61720    0.27440    0.15010    1.000
    H15      H        0.59000    0.39490    0.17920    1.000
    H16      H        0.72230    0.22790    0.79060    1.000
    H17      H        0.74270    0.10620    0.75490    1.000
    H18      H        0.65180    0.04860    0.06160    1.000
    H19      H        0.62770    0.16960    0.10480    1.000
    H20      H        0.70570    0.01990    0.88780    1.000
    Zn3      Zn       0.91542    0.03345    0.48146    1.000
    O13      O        0.95805    0.04290    0.31846    1.000
    O14      O        0.03304    0.94331    0.35673    1.000
    O15      O        0.86490    0.11851    0.44802    1.000
    O16      O        0.81384    0.07622    0.61390    1.000
    O17      O        0.72236    0.06813    0.37000    1.000
    O18      O        0.64978    0.09485    0.49860    1.000
    C31      C        0.80991    0.25528    0.52960    1.000
    C32      C        0.78479    0.18758    0.50730    1.000
    C33      C        0.72404    0.18255    0.47550    1.000
    C34      C        0.82325    0.12100    0.52570    1.000
    C35      C        0.69499    0.11027    0.44960    1.000
    C36      C        0.85010    0.91346    0.60030    1.000
    C37      C        0.83289    0.84381    0.62140    1.000
    C38      C        0.84535    0.78921    0.53040    1.000
    C39      C        0.87399    0.80993    0.41700    1.000
    C40      C        0.89012    0.88137    0.40140    1.000
    C41      C        0.82966    0.71250    0.55220    1.000
    C42      C        0.79440    0.69134    0.65220    1.000
    C43      C        0.78189    0.61923    0.67250    1.000
    C44      C        0.83500    0.58700    0.49890    1.000
    C45      C        0.84960    0.65789    0.47290    1.000
    N5       N        0.87962    0.93288    0.49250    1.000
    N6       N        0.80241    0.56777    0.59730    1.000
    H21      H        0.85470    0.25820    0.55310    1.000
    H22      H        0.84030    0.95000    0.66440    1.000
    H23      H        0.81200    0.83260    0.70010    1.000
    H24      H        0.88280    0.77440    0.34990    1.000
    H25      H        0.91000    0.89490    0.32080    1.000
    H26      H        0.77770    0.72790    0.70940    1.000
    H27      H        0.75730    0.60620    0.74510    1.000
    H28      H        0.84820    0.54860    0.43840    1.000
    H29      H        0.87230    0.66960    0.39520    1.000
    H30      H        0.79430    0.51990    0.61220    1.000
    Zn4      Zn       0.41542    0.53345    0.48146    1.000
    O19      O        0.45805    0.54290    0.31846    1.000
    O20      O        0.53304    0.44331    0.35673    1.000
    O21      O        0.36490    0.61851    0.44802    1.000
    O22      O        0.31384    0.57622    0.61390    1.000
    O23      O        0.22236    0.56813    0.37000    1.000
    O24      O        0.14978    0.59485    0.49860    1.000
    C46      C        0.30991    0.75528    0.52960    1.000
    C47      C        0.28479    0.68758    0.50730    1.000
    C48      C        0.22404    0.68255    0.47550    1.000
    C49      C        0.32325    0.62100    0.52570    1.000
    C50      C        0.19499    0.61027    0.44960    1.000
    C51      C        0.35010    0.41346    0.60030    1.000
    C52      C        0.33289    0.34381    0.62140    1.000
    C53      C        0.34535    0.28921    0.53040    1.000
    C54      C        0.37399    0.30993    0.41700    1.000
    C55      C        0.39012    0.38137    0.40140    1.000
    C56      C        0.32966    0.21250    0.55220    1.000
    C57      C        0.29440    0.19134    0.65220    1.000
    C58      C        0.28189    0.11923    0.67250    1.000
    C59      C        0.33500    0.08700    0.49890    1.000
    C60      C        0.34960    0.15789    0.47290    1.000
    N7       N        0.37962    0.43288    0.49250    1.000
    N8       N        0.30241    0.06777    0.59730    1.000
    H31      H        0.35470    0.75820    0.55310    1.000
    H32      H        0.34030    0.45000    0.66440    1.000
    H33      H        0.31200    0.33260    0.70010    1.000
    H34      H        0.38280    0.27440    0.34990    1.000
    H35      H        0.41000    0.39490    0.32080    1.000
    H36      H        0.27770    0.22790    0.70940    1.000
    H37      H        0.25730    0.10620    0.74510    1.000
    H38      H        0.34820    0.04860    0.43840    1.000
    H39      H        0.37230    0.16960    0.39520    1.000
    H40      H        0.29430    0.01990    0.61220    1.000
    Zn5      Zn       0.91542    0.96655    0.98146    1.000
    O25      O        0.95805    0.95710    0.81846    1.000
    O26      O        0.03304    0.05669    0.85673    1.000
    O27      O        0.86490    0.88149    0.94802    1.000
    O28      O        0.81384    0.92378    0.11390    1.000
    O29      O        0.72236    0.93187    0.87000    1.000
    O30      O        0.64978    0.90515    0.99860    1.000
    C61      C        0.80991    0.74472    0.02960    1.000
    C62      C        0.78479    0.81242    0.00730    1.000
    C63      C        0.72404    0.81745    0.97550    1.000
    C64      C        0.82325    0.87900    0.02570    1.000
    C65      C        0.69499    0.88973    0.94960    1.000
    C66      C        0.85010    0.08654    0.10030    1.000
    C67      C        0.83289    0.15619    0.12140    1.000
    C68      C        0.84535    0.21079    0.03040    1.000
    C69      C        0.87399    0.19007    0.91700    1.000
    C70      C        0.89012    0.11863    0.90140    1.000
    C71      C        0.82966    0.28750    0.05220    1.000
    C72      C        0.79440    0.30866    0.15220    1.000
    C73      C        0.78189    0.38077    0.17250    1.000
    C74      C        0.83500    0.41300    0.99890    1.000
    C75      C        0.84960    0.34211    0.97290    1.000
    N9       N        0.87962    0.06712    0.99250    1.000
    N10      N        0.80241    0.43223    0.09730    1.000
    H41      H        0.85470    0.74180    0.05310    1.000
    H42      H        0.84030    0.05000    0.16440    1.000
    H43      H        0.81200    0.16740    0.20010    1.000
    H44      H        0.88280    0.22560    0.84990    1.000
    H45      H        0.91000    0.10510    0.82080    1.000
    H46      H        0.77770    0.27210    0.20940    1.000
    H47      H        0.75730    0.39380    0.24510    1.000
    H48      H        0.84820    0.45140    0.93840    1.000
    H49      H        0.87230    0.33040    0.89520    1.000
    H50      H        0.79430    0.48010    0.11220    1.000
    Zn6      Zn       0.41542    0.46655    0.98146    1.000
    O31      O        0.45805    0.45710    0.81846    1.000
    O32      O        0.53304    0.55669    0.85673    1.000
    O33      O        0.36490    0.38149    0.94802    1.000
    O34      O        0.31384    0.42378    0.11390    1.000
    O35      O        0.22236    0.43187    0.87000    1.000
    O36      O        0.14978    0.40515    0.99860    1.000
    C76      C        0.30991    0.24472    0.02960    1.000
    C77      C        0.28479    0.31242    0.00730    1.000
    C78      C        0.22404    0.31745    0.97550    1.000
    C79      C        0.32325    0.37900    0.02570    1.000
    C80      C        0.19499    0.38973    0.94960    1.000
    C81      C        0.35010    0.58654    0.10030    1.000
    C82      C        0.33289    0.65619    0.12140    1.000
    C83      C        0.34535    0.71079    0.03040    1.000
    C84      C        0.37399    0.69007    0.91700    1.000
    C85      C        0.39012    0.61863    0.90140    1.000
    C86      C        0.32966    0.78750    0.05220    1.000
    C87      C        0.29440    0.80866    0.15220    1.000
    C88      C        0.28189    0.88077    0.17250    1.000
    C89      C        0.33500    0.91300    0.99890    1.000
    C90      C        0.34960    0.84211    0.97290    1.000
    N11      N        0.37962    0.56712    0.99250    1.000
    N12      N        0.30241    0.93223    0.09730    1.000
    H51      H        0.35470    0.24180    0.05310    1.000
    H52      H        0.34030    0.55000    0.16440    1.000
    H53      H        0.31200    0.66740    0.20010    1.000
    H54      H        0.38280    0.72560    0.84990    1.000
    H55      H        0.41000    0.60510    0.82080    1.000
    H56      H        0.27770    0.77210    0.20940    1.000
    H57      H        0.25730    0.89380    0.24510    1.000
    H58      H        0.34820    0.95140    0.93840    1.000
    H59      H        0.37230    0.83040    0.89520    1.000
    H60      H        0.29430    0.98010    0.11220    1.000
    Zn7      Zn       0.08458    0.96655    0.51854    1.000
    O37      O        0.04195    0.95710    0.68154    1.000
    O38      O        0.96696    0.05669    0.64327    1.000
    O39      O        0.13510    0.88149    0.55198    1.000
    O40      O        0.18616    0.92378    0.38610    1.000
    O41      O        0.27764    0.93187    0.63000    1.000
    O42      O        0.35022    0.90515    0.50140    1.000
    C91      C        0.19009    0.74472    0.47040    1.000
    C92      C        0.21521    0.81242    0.49270    1.000
    C93      C        0.27596    0.81745    0.52450    1.000
    C94      C        0.17675    0.87900    0.47430    1.000
    C95      C        0.30501    0.88973    0.55040    1.000
    C96      C        0.14990    0.08654    0.39970    1.000
    C97      C        0.16711    0.15619    0.37860    1.000
    C98      C        0.15465    0.21079    0.46960    1.000
    C99      C        0.12601    0.19007    0.58300    1.000
    C100     C        0.10988    0.11863    0.59860    1.000
    C101     C        0.17034    0.28750    0.44780    1.000
    C102     C        0.20560    0.30866    0.34780    1.000
    C103     C        0.21811    0.38077    0.32750    1.000
    C104     C        0.16500    0.41300    0.50110    1.000
    C105     C        0.15040    0.34211    0.52710    1.000
    N13      N        0.12038    0.06712    0.50750    1.000
    N14      N        0.19759    0.43223    0.40270    1.000
    H61      H        0.14530    0.74180    0.44690    1.000
    H62      H        0.15970    0.05000    0.33560    1.000
    H63      H        0.18800    0.16740    0.29990    1.000
    H64      H        0.11720    0.22560    0.65010    1.000
    H65      H        0.09000    0.10510    0.67920    1.000
    H66      H        0.22230    0.27210    0.29060    1.000
    H67      H        0.24270    0.39380    0.25490    1.000
    H68      H        0.15180    0.45140    0.56160    1.000
    H69      H        0.12770    0.33040    0.60480    1.000
    H70      H        0.20570    0.48010    0.38780    1.000
    Zn8      Zn       0.58458    0.46655    0.51854    1.000
    O43      O        0.54195    0.45710    0.68154    1.000
    O44      O        0.46696    0.55669    0.64327    1.000
    O45      O        0.63510    0.38149    0.55198    1.000
    O46      O        0.68616    0.42378    0.38610    1.000
    O47      O        0.77764    0.43187    0.63000    1.000
    O48      O        0.85022    0.40515    0.50140    1.000
    C106     C        0.69009    0.24472    0.47040    1.000
    C107     C        0.71521    0.31242    0.49270    1.000
    C108     C        0.77596    0.31745    0.52450    1.000
    C109     C        0.67675    0.37900    0.47430    1.000
    C110     C        0.80501    0.38973    0.55040    1.000
    C111     C        0.64990    0.58654    0.39970    1.000
    C112     C        0.66711    0.65619    0.37860    1.000
    C113     C        0.65465    0.71079    0.46960    1.000
    C114     C        0.62601    0.69007    0.58300    1.000
    C115     C        0.60988    0.61863    0.59860    1.000
    C116     C        0.67034    0.78750    0.44780    1.000
    C117     C        0.70560    0.80866    0.34780    1.000
    C118     C        0.71811    0.88077    0.32750    1.000
    C119     C        0.66500    0.91300    0.50110    1.000
    C120     C        0.65040    0.84211    0.52710    1.000
    N15      N        0.62038    0.56712    0.50750    1.000
    N16      N        0.69759    0.93223    0.40270    1.000
    H71      H        0.64530    0.24180    0.44690    1.000
    H72      H        0.65970    0.55000    0.33560    1.000
    H73      H        0.68800    0.66740    0.29990    1.000
    H74      H        0.61720    0.72560    0.65010    1.000
    H75      H        0.59000    0.60510    0.67920    1.000
    H76      H        0.72230    0.77210    0.29060    1.000
    H77      H        0.74270    0.89380    0.25490    1.000
    H78      H        0.65180    0.95140    0.56160    1.000
    H79      H        0.62770    0.83040    0.60480    1.000
    H80      H        0.70570    0.98010    0.38780    1.000
    P1       P        0.00000    0.99243    0.25000    1.000
    P2       P        0.50000    0.49243    0.25000    1.000
    P3       P        0.00000    0.00757    0.75000    1.000
    P4       P        0.50000    0.50757    0.75000    1.000
