# CIF file generated by openbabel 3.1.0, see https://openbabel.org
data_I
_chemical_name_common 'image0'
_cell_length_a 15.1316
_cell_length_b 24.7369
_cell_length_c 15.3613
_cell_angle_alpha 90
_cell_angle_beta 110.847
_cell_angle_gamma 90
_space_group_name_H-M_alt 'P 1'
_space_group_name_Hall 'P 1'
loop_
    _symmetry_equiv_pos_as_xyz
    x,y,z
loop_
    _atom_site_label
    _atom_site_type_symbol
    _atom_site_fract_x
    _atom_site_fract_y
    _atom_site_fract_z
    _atom_site_occupancy
    Co1      Co       0.89788    0.52065    0.11014    1.000
    N1       N        0.94260    0.52130    0.26250    1.000
    O1       O        0.03950    0.50910    0.12220    1.000
    N2       N        0.74780    0.51450    0.07170    1.000
    N3       N        0.89840    0.60600    0.11160    1.000
    O2       O        0.11870    0.48410    0.02970    1.000
    C1       C        0.02380    0.47140    0.40010    1.000
    H1       H        0.06080    0.44180    0.42810    1.000
    C2       C        0.99280    0.50580    0.45120    1.000
    C3       C        0.04410    0.49830    0.04360    1.000
    C4       C        0.59570    0.52100    0.95840    1.000
    H2       H        0.56010    0.52970    0.89700    1.000
    C5       C        0.55190    0.50190    0.01500    1.000
    C6       C        0.00110    0.48020    0.31000    1.000
    H3       H        0.02610    0.45730    0.27670    1.000
    C7       C        0.90300    0.72200    0.11600    1.000
    C8       C        0.71060    0.49790    0.13470    1.000
    H4       H        0.74790    0.49170    0.19670    1.000
    C9       C        0.93760    0.54900    0.40780    1.000
    H5       H        0.91300    0.57230    0.44100    1.000
    C10      C        0.68760    0.52740    0.98890    1.000
    H6       H        0.71290    0.54260    0.94750    1.000
    C11      C        0.91880    0.55750    0.31090    1.000
    H7       H        0.88940    0.58920    0.28250    1.000
    C12      C        0.61160    0.49040    0.10140    1.000
    H8       H        0.58540    0.47630    0.14280    1.000
    C13      C        0.97500    0.63260    0.14650    1.000
    H9       H        0.03080    0.61290    0.17030    1.000
    C14      C        0.98270    0.69110    0.15230    1.000
    H10      H        0.04140    0.70740    0.18050    1.000
    C15      C        0.82170    0.69190    0.08130    1.000
    H11      H        0.76390    0.70980    0.05900    1.000
    C16      C        0.82220    0.63570    0.07800    1.000
    H12      H        0.76470    0.61810    0.05020    1.000
    Co2      Co       0.10212    0.02065    0.88986    1.000
    N4       N        0.05740    0.02130    0.73750    1.000
    O3       O        0.96050    0.00910    0.87780    1.000
    N5       N        0.25220    0.01450    0.92830    1.000
    N6       N        0.10160    0.10600    0.88840    1.000
    O4       O        0.88130    0.98410    0.97030    1.000
    C17      C        0.97620    0.97140    0.59990    1.000
    H13      H        0.93920    0.94180    0.57190    1.000
    C18      C        0.00720    0.00580    0.54880    1.000
    C19      C        0.95590    0.99830    0.95640    1.000
    C20      C        0.40430    0.02100    0.04160    1.000
    H14      H        0.43990    0.02970    0.10300    1.000
    C21      C        0.44810    0.00190    0.98500    1.000
    C22      C        0.99890    0.98020    0.69000    1.000
    H15      H        0.97390    0.95730    0.72330    1.000
    C23      C        0.09700    0.22200    0.88400    1.000
    C24      C        0.28940    0.99790    0.86530    1.000
    H16      H        0.25210    0.99170    0.80330    1.000
    C25      C        0.06240    0.04900    0.59220    1.000
    H17      H        0.08700    0.07230    0.55900    1.000
    C26      C        0.31240    0.02740    0.01110    1.000
    H18      H        0.28710    0.04260    0.05250    1.000
    C27      C        0.08120    0.05750    0.68910    1.000
    H19      H        0.11060    0.08920    0.71750    1.000
    C28      C        0.38840    0.99040    0.89860    1.000
    H20      H        0.41460    0.97630    0.85720    1.000
    C29      C        0.02500    0.13260    0.85350    1.000
    H21      H        0.96920    0.11290    0.82970    1.000
    C30      C        0.01730    0.19110    0.84770    1.000
    H22      H        0.95860    0.20740    0.81950    1.000
    C31      C        0.17830    0.19190    0.91870    1.000
    H23      H        0.23610    0.20980    0.94100    1.000
    C32      C        0.17780    0.13570    0.92200    1.000
    H24      H        0.23530    0.11810    0.94980    1.000
    Co3      Co       0.10212    0.47935    0.88986    1.000
    N7       N        0.05740    0.47870    0.73750    1.000
    O5       O        0.96050    0.49090    0.87780    1.000
    N8       N        0.25220    0.48550    0.92830    1.000
    N9       N        0.10160    0.39400    0.88840    1.000
    O6       O        0.88130    0.51590    0.97030    1.000
    C33      C        0.97620    0.52860    0.59990    1.000
    H25      H        0.93920    0.55820    0.57190    1.000
    C34      C        0.00720    0.49420    0.54880    1.000
    C35      C        0.95590    0.50170    0.95640    1.000
    C36      C        0.40430    0.47900    0.04160    1.000
    H26      H        0.43990    0.47030    0.10300    1.000
    C37      C        0.44810    0.49810    0.98500    1.000
    C38      C        0.99890    0.51980    0.69000    1.000
    H27      H        0.97390    0.54270    0.72330    1.000
    C39      C        0.09700    0.27800    0.88400    1.000
    C40      C        0.28940    0.50210    0.86530    1.000
    H28      H        0.25210    0.50830    0.80330    1.000
    C41      C        0.06240    0.45100    0.59220    1.000
    H29      H        0.08700    0.42770    0.55900    1.000
    C42      C        0.31240    0.47260    0.01110    1.000
    H30      H        0.28710    0.45740    0.05250    1.000
    C43      C        0.08120    0.44250    0.68910    1.000
    H31      H        0.11060    0.41080    0.71750    1.000
    C44      C        0.38840    0.50960    0.89860    1.000
    H32      H        0.41460    0.52370    0.85720    1.000
    C45      C        0.02500    0.36740    0.85350    1.000
    H33      H        0.96920    0.38710    0.82970    1.000
    C46      C        0.01730    0.30890    0.84770    1.000
    H34      H        0.95860    0.29260    0.81950    1.000
    C47      C        0.17830    0.30810    0.91870    1.000
    H35      H        0.23610    0.29020    0.94100    1.000
    C48      C        0.17780    0.36430    0.92200    1.000
    H36      H        0.23530    0.38190    0.94980    1.000
    Co4      Co       0.89788    0.97935    0.11014    1.000
    N10      N        0.94260    0.97870    0.26250    1.000
    O7       O        0.03950    0.99090    0.12220    1.000
    N11      N        0.74780    0.98550    0.07170    1.000
    N12      N        0.89840    0.89400    0.11160    1.000
    O8       O        0.11870    0.01590    0.02970    1.000
    C49      C        0.02380    0.02860    0.40010    1.000
    H37      H        0.06080    0.05820    0.42810    1.000
    C50      C        0.99280    0.99420    0.45120    1.000
    C51      C        0.04410    0.00170    0.04360    1.000
    C52      C        0.59570    0.97900    0.95840    1.000
    H38      H        0.56010    0.97030    0.89700    1.000
    C53      C        0.55190    0.99810    0.01500    1.000
    C54      C        0.00110    0.01980    0.31000    1.000
    H39      H        0.02610    0.04270    0.27670    1.000
    C55      C        0.90300    0.77800    0.11600    1.000
    C56      C        0.71060    0.00210    0.13470    1.000
    H40      H        0.74790    0.00830    0.19670    1.000
    C57      C        0.93760    0.95100    0.40780    1.000
    H41      H        0.91300    0.92770    0.44100    1.000
    C58      C        0.68760    0.97260    0.98890    1.000
    H42      H        0.71290    0.95740    0.94750    1.000
    C59      C        0.91880    0.94250    0.31090    1.000
    H43      H        0.88940    0.91080    0.28250    1.000
    C60      C        0.61160    0.00960    0.10140    1.000
    H44      H        0.58540    0.02370    0.14280    1.000
    C61      C        0.97500    0.86740    0.14650    1.000
    H45      H        0.03080    0.88710    0.17030    1.000
    C62      C        0.98270    0.80890    0.15230    1.000
    H46      H        0.04140    0.79260    0.18050    1.000
    C63      C        0.82170    0.80810    0.08130    1.000
    H47      H        0.76390    0.79020    0.05900    1.000
    C64      C        0.82220    0.86430    0.07800    1.000
    H48      H        0.76470    0.88190    0.05020    1.000
