# CIF file generated by openbabel 3.1.0, see https://openbabel.org
data_I
_chemical_name_common 'image0'
_cell_length_a 10.186
_cell_length_b 10.186
_cell_length_c 24.367
_cell_angle_alpha 90
_cell_angle_beta 90
_cell_angle_gamma 90
_space_group_name_H-M_alt 'P 1'
_space_group_name_Hall 'P 1'
loop_
    _symmetry_equiv_pos_as_xyz
    x,y,z
loop_
    _atom_site_label
    _atom_site_type_symbol
    _atom_site_fract_x
    _atom_site_fract_y
    _atom_site_fract_z
    _atom_site_occupancy
    Cd1      Cd       0.09765    0.76130    0.00090    1.000
    C1       C        0.09070    0.50880    0.95610    1.000
    C2       C        0.08560    0.38050    0.92370    1.000
    C3       C        0.07580    0.38090    0.86710    1.000
    H1       H        0.07330    0.46220    0.84720    1.000
    C4       C        0.07350    0.26350    0.84080    1.000
    C5       C        0.08110    0.14200    0.86820    1.000
    H2       H        0.07760    0.06170    0.84760    1.000
    C6       C        0.08960    0.14200    0.92350    1.000
    C7       C        0.09160    0.26310    0.95250    1.000
    H3       H        0.09350    0.26450    0.99190    1.000
    C8       C        0.09960    0.01320    0.95390    1.000
    C9       C        0.85120    0.75430    0.04960    1.000
    C10      C        0.72090    0.74850    0.07890    1.000
    C11      C        0.71660    0.74570    0.13630    1.000
    H4       H        0.79670    0.74960    0.15700    1.000
    C12      C        0.59640    0.74210    0.16300    1.000
    C13      C        0.47810    0.74450    0.13310    1.000
    H5       H        0.39520    0.74460    0.15190    1.000
    C14      C        0.48100    0.74580    0.07550    1.000
    C15      C        0.60210    0.74900    0.04900    1.000
    C16      C        0.35500    0.75310    0.04310    1.000
    H6       H        0.60430    0.75430    0.01170    1.000
    O1       O        0.09850    0.50990    0.00570    1.000
    O2       O        0.08740    0.61580    0.92840    1.000
    O3       O        0.13770    0.01240    0.00180    1.000
    O4       O        0.06600    0.91210    0.92970    1.000
    O5       O        0.04580    0.36400    0.75560    1.000
    O6       O        0.05880    0.15700    0.75780    1.000
    O7       O        0.85280    0.75830    0.00050    1.000
    O8       O        0.95420    0.75520    0.07830    1.000
    O9       O        0.35770    0.74310    0.99330    1.000
    O10      O        0.25060    0.76180    0.06980    1.000
    O11      O        0.49350    0.68930    0.24430    1.000
    O12      O        0.68310    0.75300    0.24650    1.000
    N1       N        0.05980    0.25890    0.78090    1.000
    N2       N        0.59020    0.73620    0.22070    1.000
    K1       K        0.53460    0.82070    0.91110    1.000
    K2       K        0.79640    0.88834    0.91041    1.000
    Cd2      Cd       0.90235    0.23870    0.50090    1.000
    C17      C        0.90930    0.49120    0.45610    1.000
    C18      C        0.91440    0.61950    0.42370    1.000
    C19      C        0.92420    0.61910    0.36710    1.000
    H7       H        0.92670    0.53780    0.34720    1.000
    C20      C        0.92650    0.73650    0.34080    1.000
    C21      C        0.91890    0.85800    0.36820    1.000
    H8       H        0.92240    0.93830    0.34760    1.000
    C22      C        0.91040    0.85800    0.42350    1.000
    C23      C        0.90840    0.73690    0.45250    1.000
    H9       H        0.90650    0.73550    0.49190    1.000
    C24      C        0.90040    0.98680    0.45390    1.000
    C25      C        0.14880    0.24570    0.54960    1.000
    C26      C        0.27910    0.25150    0.57890    1.000
    C27      C        0.28340    0.25430    0.63630    1.000
    H10      H        0.20330    0.25040    0.65700    1.000
    C28      C        0.40360    0.25790    0.66300    1.000
    C29      C        0.52190    0.25550    0.63310    1.000
    H11      H        0.60480    0.25540    0.65190    1.000
    C30      C        0.51900    0.25420    0.57550    1.000
    C31      C        0.39790    0.25100    0.54900    1.000
    C32      C        0.64500    0.24690    0.54310    1.000
    H12      H        0.39570    0.24570    0.51170    1.000
    O13      O        0.90150    0.49010    0.50570    1.000
    O14      O        0.91260    0.38420    0.42840    1.000
    O15      O        0.86230    0.98760    0.50180    1.000
    O16      O        0.93400    0.08790    0.42970    1.000
    O17      O        0.95420    0.63600    0.25560    1.000
    O18      O        0.94120    0.84300    0.25780    1.000
    O19      O        0.14720    0.24170    0.50050    1.000
    O20      O        0.04580    0.24480    0.57830    1.000
    O21      O        0.64230    0.25690    0.49330    1.000
    O22      O        0.74940    0.23820    0.56980    1.000
    O23      O        0.50650    0.31070    0.74430    1.000
    O24      O        0.31690    0.24700    0.74650    1.000
    N3       N        0.94020    0.74110    0.28090    1.000
    N4       N        0.40980    0.26380    0.72070    1.000
    K3       K        0.46540    0.17930    0.41110    1.000
    K4       K        0.20360    0.11166    0.41041    1.000
    Cd3      Cd       0.23870    0.09765    0.25090    1.000
    C33      C        0.49120    0.09070    0.20610    1.000
    C34      C        0.61950    0.08560    0.17370    1.000
    C35      C        0.61910    0.07580    0.11710    1.000
    H13      H        0.53780    0.07330    0.09720    1.000
    C36      C        0.73650    0.07350    0.09080    1.000
    C37      C        0.85800    0.08110    0.11820    1.000
    H14      H        0.93830    0.07760    0.09760    1.000
    C38      C        0.85800    0.08960    0.17350    1.000
    C39      C        0.73690    0.09160    0.20250    1.000
    H15      H        0.73550    0.09350    0.24190    1.000
    C40      C        0.98680    0.09960    0.20390    1.000
    C41      C        0.24570    0.85120    0.29960    1.000
    C42      C        0.25150    0.72090    0.32890    1.000
    C43      C        0.25430    0.71660    0.38630    1.000
    H16      H        0.25040    0.79670    0.40700    1.000
    C44      C        0.25790    0.59640    0.41300    1.000
    C45      C        0.25550    0.47810    0.38310    1.000
    H17      H        0.25540    0.39520    0.40190    1.000
    C46      C        0.25420    0.48100    0.32550    1.000
    C47      C        0.25100    0.60210    0.29900    1.000
    C48      C        0.24690    0.35500    0.29310    1.000
    H18      H        0.24570    0.60430    0.26170    1.000
    O25      O        0.49010    0.09850    0.25570    1.000
    O26      O        0.38420    0.08740    0.17840    1.000
    O27      O        0.98760    0.13770    0.25180    1.000
    O28      O        0.08790    0.06600    0.17970    1.000
    O29      O        0.63600    0.04580    0.00560    1.000
    O30      O        0.84300    0.05880    0.00780    1.000
    O31      O        0.24170    0.85280    0.25050    1.000
    O32      O        0.24480    0.95420    0.32830    1.000
    O33      O        0.25690    0.35770    0.24330    1.000
    O34      O        0.23820    0.25060    0.31980    1.000
    O35      O        0.31070    0.49350    0.49430    1.000
    O36      O        0.24700    0.68310    0.49650    1.000
    N5       N        0.74110    0.05980    0.03090    1.000
    N6       N        0.26380    0.59020    0.47070    1.000
    K5       K        0.17930    0.53460    0.16110    1.000
    K6       K        0.11166    0.79640    0.16041    1.000
    Cd4      Cd       0.76130    0.90235    0.75090    1.000
    C49      C        0.50880    0.90930    0.70610    1.000
    C50      C        0.38050    0.91440    0.67370    1.000
    C51      C        0.38090    0.92420    0.61710    1.000
    H19      H        0.46220    0.92670    0.59720    1.000
    C52      C        0.26350    0.92650    0.59080    1.000
    C53      C        0.14200    0.91890    0.61820    1.000
    H20      H        0.06170    0.92240    0.59760    1.000
    C54      C        0.14200    0.91040    0.67350    1.000
    C55      C        0.26310    0.90840    0.70250    1.000
    H21      H        0.26450    0.90650    0.74190    1.000
    C56      C        0.01320    0.90040    0.70390    1.000
    C57      C        0.75430    0.14880    0.79960    1.000
    C58      C        0.74850    0.27910    0.82890    1.000
    C59      C        0.74570    0.28340    0.88630    1.000
    H22      H        0.74960    0.20330    0.90700    1.000
    C60      C        0.74210    0.40360    0.91300    1.000
    C61      C        0.74450    0.52190    0.88310    1.000
    H23      H        0.74460    0.60480    0.90190    1.000
    C62      C        0.74580    0.51900    0.82550    1.000
    C63      C        0.74900    0.39790    0.79900    1.000
    C64      C        0.75310    0.64500    0.79310    1.000
    H24      H        0.75430    0.39570    0.76170    1.000
    O37      O        0.50990    0.90150    0.75570    1.000
    O38      O        0.61580    0.91260    0.67840    1.000
    O39      O        0.01240    0.86230    0.75180    1.000
    O40      O        0.91210    0.93400    0.67970    1.000
    O41      O        0.36400    0.95420    0.50560    1.000
    O42      O        0.15700    0.94120    0.50780    1.000
    O43      O        0.75830    0.14720    0.75050    1.000
    O44      O        0.75520    0.04580    0.82830    1.000
    O45      O        0.74310    0.64230    0.74330    1.000
    O46      O        0.76180    0.74940    0.81980    1.000
    O47      O        0.68930    0.50650    0.99430    1.000
    O48      O        0.75300    0.31690    0.99650    1.000
    N7       N        0.25890    0.94020    0.53090    1.000
    N8       N        0.73620    0.40980    0.97070    1.000
    K7       K        0.82070    0.46540    0.66110    1.000
    K8       K        0.88834    0.20360    0.66041    1.000
