# CIF file generated by openbabel 3.1.0, see https://openbabel.org
data_I
_chemical_name_common 'VAYDOQ_clean'
_cell_length_a 7.5203
_cell_length_b 13.552
_cell_length_c 15.623
_cell_angle_alpha 90
_cell_angle_beta 90
_cell_angle_gamma 90
_space_group_name_H-M_alt 'P 1'
_space_group_name_Hall 'P 1'
loop_
    _symmetry_equiv_pos_as_xyz
    x,y,z
loop_
    _atom_site_label
    _atom_site_type_symbol
    _atom_site_fract_x
    _atom_site_fract_y
    _atom_site_fract_z
    _atom_site_occupancy
    Li1      Li       0.47790    0.67550    0.08893    1.000
    Li2      Li       0.33720    0.51820    0.98290    1.000
    Li3      Li       0.97790    0.82450    0.91107    1.000
    Li4      Li       0.83720    0.98180    0.01710    1.000
    Li5      Li       0.52210    0.32450    0.58893    1.000
    Li6      Li       0.66280    0.48180    0.48290    1.000
    Li7      Li       0.02210    0.17550    0.41107    1.000
    Li8      Li       0.16280    0.01820    0.51710    1.000
    Li9      Li       0.52210    0.32450    0.91107    1.000
    Li10     Li       0.66280    0.48180    0.01710    1.000
    Li11     Li       0.02210    0.17550    0.08893    1.000
    Li12     Li       0.16280    0.01820    0.98290    1.000
    Li13     Li       0.47790    0.67550    0.41107    1.000
    Li14     Li       0.33720    0.51820    0.51710    1.000
    Li15     Li       0.97790    0.82450    0.58893    1.000
    Li16     Li       0.83720    0.98180    0.48290    1.000
    H1       H        0.03180    0.58640    0.93540    1.000
    H2       H        0.16220    0.52190    0.94830    1.000
    H3       H        0.53180    0.91360    0.06460    1.000
    H4       H        0.66220    0.97810    0.05170    1.000
    H5       H        0.96820    0.41360    0.43540    1.000
    H6       H        0.83780    0.47810    0.44830    1.000
    H7       H        0.46820    0.08640    0.56460    1.000
    H8       H        0.33780    0.02190    0.55170    1.000
    H9       H        0.96820    0.41360    0.06460    1.000
    H10      H        0.83780    0.47810    0.05170    1.000
    H11      H        0.46820    0.08640    0.93540    1.000
    H12      H        0.33780    0.02190    0.94830    1.000
    H13      H        0.03180    0.58640    0.56460    1.000
    H14      H        0.16220    0.52190    0.55170    1.000
    H15      H        0.53180    0.91360    0.43540    1.000
    H16      H        0.66220    0.97810    0.44830    1.000
    H17      H        0.71200    0.71850    0.75000    1.000
    H18      H        0.48620    0.40030    0.75000    1.000
    H19      H        0.21200    0.78150    0.25000    1.000
    H20      H        0.98620    0.09970    0.25000    1.000
    H21      H        0.28800    0.28150    0.25000    1.000
    H22      H        0.51380    0.59970    0.25000    1.000
    H23      H        0.78800    0.21850    0.75000    1.000
    H24      H        0.01380    0.90030    0.75000    1.000
    C1       C        0.63130    0.60799    0.82688    1.000
    C2       C        0.56190    0.51031    0.82924    1.000
    C3       C        0.13130    0.89201    0.17312    1.000
    C4       C        0.06190    0.98969    0.17076    1.000
    C5       C        0.36870    0.39201    0.32688    1.000
    C6       C        0.43810    0.48969    0.32924    1.000
    C7       C        0.86870    0.10799    0.67312    1.000
    C8       C        0.93810    0.01031    0.67076    1.000
    C9       C        0.36870    0.39201    0.17312    1.000
    C10      C        0.43810    0.48969    0.17076    1.000
    C11      C        0.86870    0.10799    0.82688    1.000
    C12      C        0.93810    0.01031    0.82924    1.000
    C13      C        0.63130    0.60799    0.67312    1.000
    C14      C        0.56190    0.51031    0.67076    1.000
    C15      C        0.13130    0.89201    0.32688    1.000
    C16      C        0.06190    0.98969    0.32924    1.000
    C17      C        0.66570    0.65489    0.75000    1.000
    C18      C        0.53030    0.46440    0.75000    1.000
    C19      C        0.16570    0.84511    0.25000    1.000
    C20      C        0.03030    0.03560    0.25000    1.000
    C21      C        0.33430    0.34511    0.25000    1.000
    C22      C        0.46970    0.53560    0.25000    1.000
    C23      C        0.83430    0.15489    0.75000    1.000
    C24      C        0.96970    0.96440    0.75000    1.000
    S1       S        0.66800    0.67030    0.92237    1.000
    S2       S        0.16800    0.82970    0.07763    1.000
    S3       S        0.33200    0.32970    0.42237    1.000
    S4       S        0.83200    0.17030    0.57763    1.000
    S5       S        0.33200    0.32970    0.07763    1.000
    S6       S        0.83200    0.17030    0.92237    1.000
    S7       S        0.66800    0.67030    0.57763    1.000
    S8       S        0.16800    0.82970    0.42237    1.000
    O1       O        0.49572    0.68170    0.96436    1.000
    O2       O        0.74536    0.76554    0.89930    1.000
    O3       O        0.13370    0.57169    0.92182    1.000
    O4       O        0.78709    0.61052    0.97560    1.000
    O5       O        0.52835    0.46624    0.90333    1.000
    O6       O        0.99572    0.81830    0.03564    1.000
    O7       O        0.24536    0.73446    0.10070    1.000
    O8       O        0.63370    0.92831    0.07818    1.000
    O9       O        0.28709    0.88948    0.02440    1.000
    O10      O        0.02835    0.03376    0.09667    1.000
    O11      O        0.50428    0.31830    0.46436    1.000
    O12      O        0.25464    0.23446    0.39930    1.000
    O13      O        0.86630    0.42831    0.42182    1.000
    O14      O        0.21291    0.38948    0.47560    1.000
    O15      O        0.47165    0.53376    0.40333    1.000
    O16      O        0.00428    0.18170    0.53564    1.000
    O17      O        0.75464    0.26554    0.60070    1.000
    O18      O        0.36630    0.07169    0.57818    1.000
    O19      O        0.71291    0.11052    0.52440    1.000
    O20      O        0.97165    0.96624    0.59667    1.000
    O21      O        0.50428    0.31830    0.03564    1.000
    O22      O        0.25464    0.23446    0.10070    1.000
    O23      O        0.86630    0.42831    0.07818    1.000
    O24      O        0.21291    0.38948    0.02440    1.000
    O25      O        0.47165    0.53376    0.09667    1.000
    O26      O        0.00428    0.18170    0.96436    1.000
    O27      O        0.75464    0.26554    0.89930    1.000
    O28      O        0.36630    0.07169    0.92182    1.000
    O29      O        0.71291    0.11052    0.97560    1.000
    O30      O        0.97165    0.96624    0.90333    1.000
    O31      O        0.49572    0.68170    0.53564    1.000
    O32      O        0.74536    0.76554    0.60070    1.000
    O33      O        0.13370    0.57169    0.57818    1.000
    O34      O        0.78709    0.61052    0.52440    1.000
    O35      O        0.52835    0.46624    0.59667    1.000
    O36      O        0.99572    0.81830    0.46436    1.000
    O37      O        0.24536    0.73446    0.39930    1.000
    O38      O        0.63370    0.92831    0.42182    1.000
    O39      O        0.28709    0.88948    0.47560    1.000
    O40      O        0.02835    0.03376    0.40333    1.000
