# CIF file generated by openbabel 3.1.0, see https://openbabel.org
data_I
_chemical_name_common 'image0'
_cell_length_a 8.3898
_cell_length_b 10.6559
_cell_length_c 14.3877
_cell_angle_alpha 101.964
_cell_angle_beta 102.864
_cell_angle_gamma 102.681
_space_group_name_H-M_alt 'P 1'
_space_group_name_Hall 'P 1'
loop_
    _symmetry_equiv_pos_as_xyz
    x,y,z
loop_
    _atom_site_label
    _atom_site_type_symbol
    _atom_site_fract_x
    _atom_site_fract_y
    _atom_site_fract_z
    _atom_site_occupancy
    Sm1      Sm       0.34250    0.33938    0.32908    1.000
    O1       O        0.33948    0.55500    0.40484    1.000
    O2       O        0.53618    0.71927    0.52487    1.000
    O3       O        0.27130    0.99305    0.10739    1.000
    O4       O        0.42426    0.16695    0.23588    1.000
    O5       O        0.08809    0.35191    0.20852    1.000
    O6       O        0.33346    0.42642    0.17883    1.000
    O7       O        0.12455    0.13114    0.30410    1.000
    O8       O        0.10955    0.30249    0.41526    1.000
    C1       C        0.41120    0.76999    0.37746    1.000
    C2       C        0.28230    0.73057    0.28861    1.000
    H1       H        0.20640    0.64570    0.26900    1.000
    C3       C        0.26620    0.81707    0.22894    1.000
    H2       H        0.18390    0.78800    0.16800    1.000
    C4       C        0.37370    0.94798    0.26042    1.000
    C5       C        0.50080    0.98815    0.34971    1.000
    H3       H        0.57220    0.07490    0.37140    1.000
    C6       C        0.52160    0.89899    0.40694    1.000
    H4       H        0.60980    0.92560    0.46530    1.000
    C7       C        0.43160    0.67448    0.44056    1.000
    C8       C        0.35170    0.04135    0.19519    1.000
    C9       C        0.08390    0.45597    0.07663    1.000
    C10      C        0.90940    0.44150    0.05740    1.000
    H5       H        0.84890    0.40230    0.09580    1.000
    C11      C        0.17420    0.51490    0.01870    1.000
    H6       H        0.29050    0.52480    0.03120    1.000
    C12      C        0.17340    0.40810    0.15877    1.000
    C13      C        0.03600    0.08549    0.44180    1.000
    C14      C        0.06870    0.96110    0.42287    1.000
    H7       H        0.11440    0.93520    0.37110    1.000
    C15      C        0.96700    0.12400    0.51860    1.000
    H8       H        0.94480    0.20670    0.53090    1.000
    C16      C        0.08860    0.17848    0.38260    1.000
    Sm2      Sm       0.65750    0.66062    0.67092    1.000
    O9       O        0.66052    0.44500    0.59516    1.000
    O10      O        0.46382    0.28073    0.47513    1.000
    O11      O        0.72870    0.00695    0.89261    1.000
    O12      O        0.57574    0.83305    0.76412    1.000
    O13      O        0.91191    0.64809    0.79148    1.000
    O14      O        0.66654    0.57358    0.82117    1.000
    O15      O        0.87545    0.86886    0.69590    1.000
    O16      O        0.89045    0.69751    0.58474    1.000
    C17      C        0.58880    0.23001    0.62254    1.000
    C18      C        0.71770    0.26943    0.71139    1.000
    H9       H        0.79360    0.35430    0.73100    1.000
    C19      C        0.73380    0.18293    0.77106    1.000
    H10      H        0.81610    0.21200    0.83200    1.000
    C20      C        0.62630    0.05202    0.73958    1.000
    C21      C        0.49920    0.01185    0.65029    1.000
    H11      H        0.42780    0.92510    0.62860    1.000
    C22      C        0.47840    0.10101    0.59306    1.000
    H12      H        0.39020    0.07440    0.53470    1.000
    C23      C        0.56840    0.32552    0.55944    1.000
    C24      C        0.64830    0.95865    0.80481    1.000
    C25      C        0.91610    0.54403    0.92337    1.000
    C26      C        0.09060    0.55850    0.94260    1.000
    H13      H        0.15110    0.59770    0.90420    1.000
    C27      C        0.82580    0.48510    0.98130    1.000
    H14      H        0.70950    0.47520    0.96880    1.000
    C28      C        0.82660    0.59190    0.84123    1.000
    C29      C        0.96400    0.91451    0.55820    1.000
    C30      C        0.93130    0.03890    0.57713    1.000
    H15      H        0.88560    0.06480    0.62890    1.000
    C31      C        0.03300    0.87600    0.48140    1.000
    H16      H        0.05520    0.79330    0.46910    1.000
    C32      C        0.91140    0.82152    0.61740    1.000
