# CIF file generated by openbabel 3.1.0, see https://openbabel.org
data_I
_chemical_name_common 'image0'
_cell_length_a 15.85
_cell_length_b 10.1357
_cell_length_c 18.506
_cell_angle_alpha 90
_cell_angle_beta 90
_cell_angle_gamma 90
_space_group_name_H-M_alt 'P 1'
_space_group_name_Hall 'P 1'
loop_
    _symmetry_equiv_pos_as_xyz
    x,y,z
loop_
    _atom_site_label
    _atom_site_type_symbol
    _atom_site_fract_x
    _atom_site_fract_y
    _atom_site_fract_z
    _atom_site_occupancy
    Ga1      Ga       0.14981    0.83435    0.17455    1.000
    Ga2      Ga       0.95875    0.68495    0.21800    1.000
    Ga3      Ga       0.99145    0.65319    0.40553    1.000
    P1       P        0.31448    0.64991    0.16751    1.000
    P2       P        0.98471    0.86339    0.07801    1.000
    P3       P        0.06267    0.87875    0.31458    1.000
    O1       O        0.23515    0.72670    0.14587    1.000
    O2       O        0.07725    0.87740    0.09998    1.000
    O3       O        0.14594    0.84650    0.27537    1.000
    O4       O        0.29260    0.50250    0.16684    1.000
    F1       F        0.07636    0.67300    0.18639    1.000
    F2       F        0.99706    0.59180    0.30334    1.000
    O5       O        0.98730    0.84820    0.26666    1.000
    O6       O        0.06350    0.02470    0.33631    1.000
    O7       O        0.34500    0.69320    0.24227    1.000
    O8       O        0.93041    0.78650    0.13213    1.000
    O9       O        0.37845    0.68390    0.10770    1.000
    O10      O        0.94762    0.00330    0.07110    1.000
    O11      O        0.06088    0.79730    0.38532    1.000
    O12      O        0.97880    0.79360    0.00518    1.000
    Ga4      Ga       0.35019    0.16565    0.67455    1.000
    Ga5      Ga       0.54125    0.31505    0.71800    1.000
    Ga6      Ga       0.50855    0.34681    0.90553    1.000
    P4       P        0.18552    0.35009    0.66751    1.000
    P5       P        0.51529    0.13661    0.57801    1.000
    P6       P        0.43733    0.12125    0.81458    1.000
    O13      O        0.26485    0.27330    0.64587    1.000
    O14      O        0.42275    0.12260    0.59998    1.000
    O15      O        0.35406    0.15350    0.77537    1.000
    O16      O        0.20740    0.49750    0.66684    1.000
    F3       F        0.42364    0.32700    0.68639    1.000
    F4       F        0.50294    0.40820    0.80334    1.000
    O17      O        0.51270    0.15180    0.76666    1.000
    O18      O        0.43650    0.97530    0.83631    1.000
    O19      O        0.15500    0.30680    0.74227    1.000
    O20      O        0.56959    0.21350    0.63213    1.000
    O21      O        0.12155    0.31610    0.60770    1.000
    O22      O        0.55238    0.99670    0.57110    1.000
    O23      O        0.43912    0.20270    0.88532    1.000
    O24      O        0.52120    0.20640    0.50518    1.000
    Ga7      Ga       0.85019    0.33435    0.32545    1.000
    Ga8      Ga       0.04125    0.18495    0.28200    1.000
    Ga9      Ga       0.00855    0.15319    0.09447    1.000
    P7       P        0.68552    0.14991    0.33249    1.000
    P8       P        0.01529    0.36339    0.42199    1.000
    P9       P        0.93733    0.37875    0.18542    1.000
    O25      O        0.76485    0.22670    0.35413    1.000
    O26      O        0.92275    0.37740    0.40002    1.000
    O27      O        0.85406    0.34650    0.22463    1.000
    O28      O        0.70740    0.00250    0.33316    1.000
    F5       F        0.92364    0.17300    0.31361    1.000
    F6       F        0.00294    0.09180    0.19666    1.000
    O29      O        0.01270    0.34820    0.23334    1.000
    O30      O        0.93650    0.52470    0.16369    1.000
    O31      O        0.65500    0.19320    0.25773    1.000
    O32      O        0.06959    0.28650    0.36787    1.000
    O33      O        0.62155    0.18390    0.39230    1.000
    O34      O        0.05238    0.50330    0.42890    1.000
    O35      O        0.93912    0.29730    0.11468    1.000
    O36      O        0.02120    0.29360    0.49482    1.000
    Ga10     Ga       0.64981    0.66565    0.82545    1.000
    Ga11     Ga       0.45875    0.81505    0.78200    1.000
    Ga12     Ga       0.49145    0.84681    0.59447    1.000
    P10      P        0.81448    0.85009    0.83249    1.000
    P11      P        0.48471    0.63661    0.92199    1.000
    P12      P        0.56267    0.62125    0.68542    1.000
    O37      O        0.73515    0.77330    0.85413    1.000
    O38      O        0.57725    0.62260    0.90002    1.000
    O39      O        0.64594    0.65350    0.72463    1.000
    O40      O        0.79260    0.99750    0.83316    1.000
    F7       F        0.57636    0.82700    0.81361    1.000
    F8       F        0.49706    0.90820    0.69666    1.000
    O41      O        0.48730    0.65180    0.73334    1.000
    O42      O        0.56350    0.47530    0.66369    1.000
    O43      O        0.84500    0.80680    0.75773    1.000
    O44      O        0.43041    0.71350    0.86787    1.000
    O45      O        0.87845    0.81610    0.89230    1.000
    O46      O        0.44762    0.49670    0.92890    1.000
    O47      O        0.56088    0.70270    0.61468    1.000
    O48      O        0.47880    0.70640    0.99482    1.000
    Ga13     Ga       0.85019    0.16565    0.82545    1.000
    Ga14     Ga       0.04125    0.31505    0.78200    1.000
    Ga15     Ga       0.00855    0.34681    0.59447    1.000
    P13      P        0.68552    0.35009    0.83249    1.000
    P14      P        0.01529    0.13661    0.92199    1.000
    P15      P        0.93733    0.12125    0.68542    1.000
    O49      O        0.76485    0.27330    0.85413    1.000
    O50      O        0.92275    0.12260    0.90002    1.000
    O51      O        0.85406    0.15350    0.72463    1.000
    O52      O        0.70740    0.49750    0.83316    1.000
    F9       F        0.92364    0.32700    0.81361    1.000
    F10      F        0.00294    0.40820    0.69666    1.000
    O53      O        0.01270    0.15180    0.73334    1.000
    O54      O        0.93650    0.97530    0.66369    1.000
    O55      O        0.65500    0.30680    0.75773    1.000
    O56      O        0.06959    0.21350    0.86787    1.000
    O57      O        0.62155    0.31610    0.89230    1.000
    O58      O        0.05238    0.99670    0.92890    1.000
    O59      O        0.93912    0.20270    0.61468    1.000
    O60      O        0.02120    0.20640    0.99482    1.000
    Ga16     Ga       0.64981    0.83435    0.32545    1.000
    Ga17     Ga       0.45875    0.68495    0.28200    1.000
    Ga18     Ga       0.49145    0.65319    0.09447    1.000
    P16      P        0.81448    0.64991    0.33249    1.000
    P17      P        0.48471    0.86339    0.42199    1.000
    P18      P        0.56267    0.87875    0.18542    1.000
    O61      O        0.73515    0.72670    0.35413    1.000
    O62      O        0.57725    0.87740    0.40002    1.000
    O63      O        0.64594    0.84650    0.22463    1.000
    O64      O        0.79260    0.50250    0.33316    1.000
    F11      F        0.57636    0.67300    0.31361    1.000
    F12      F        0.49706    0.59180    0.19666    1.000
    O65      O        0.48730    0.84820    0.23334    1.000
    O66      O        0.56350    0.02470    0.16369    1.000
    O67      O        0.84500    0.69320    0.25773    1.000
    O68      O        0.43041    0.78650    0.36787    1.000
    O69      O        0.87845    0.68390    0.39230    1.000
    O70      O        0.44762    0.00330    0.42890    1.000
    O71      O        0.56088    0.79730    0.11468    1.000
    O72      O        0.47880    0.79360    0.49482    1.000
    Ga19     Ga       0.14981    0.66565    0.67455    1.000
    Ga20     Ga       0.95875    0.81505    0.71800    1.000
    Ga21     Ga       0.99145    0.84681    0.90553    1.000
    P19      P        0.31448    0.85009    0.66751    1.000
    P20      P        0.98471    0.63661    0.57801    1.000
    P21      P        0.06267    0.62125    0.81458    1.000
    O73      O        0.23515    0.77330    0.64587    1.000
    O74      O        0.07725    0.62260    0.59998    1.000
    O75      O        0.14594    0.65350    0.77537    1.000
    O76      O        0.29260    0.99750    0.66684    1.000
    F13      F        0.07636    0.82700    0.68639    1.000
    F14      F        0.99706    0.90820    0.80334    1.000
    O77      O        0.98730    0.65180    0.76666    1.000
    O78      O        0.06350    0.47530    0.83631    1.000
    O79      O        0.34500    0.80680    0.74227    1.000
    O80      O        0.93041    0.71350    0.63213    1.000
    O81      O        0.37845    0.81610    0.60770    1.000
    O82      O        0.94762    0.49670    0.57110    1.000
    O83      O        0.06088    0.70270    0.88532    1.000
    O84      O        0.97880    0.70640    0.50518    1.000
    Ga22     Ga       0.35019    0.33435    0.17455    1.000
    Ga23     Ga       0.54125    0.18495    0.21800    1.000
    Ga24     Ga       0.50855    0.15319    0.40553    1.000
    P22      P        0.18552    0.14991    0.16751    1.000
    P23      P        0.51529    0.36339    0.07801    1.000
    P24      P        0.43733    0.37875    0.31458    1.000
    O85      O        0.26485    0.22670    0.14587    1.000
    O86      O        0.42275    0.37740    0.09998    1.000
    O87      O        0.35406    0.34650    0.27537    1.000
    O88      O        0.20740    0.00250    0.16684    1.000
    F15      F        0.42364    0.17300    0.18639    1.000
    F16      F        0.50294    0.09180    0.30334    1.000
    O89      O        0.51270    0.34820    0.26666    1.000
    O90      O        0.43650    0.52470    0.33631    1.000
    O91      O        0.15500    0.19320    0.24227    1.000
    O92      O        0.56959    0.28650    0.13213    1.000
    O93      O        0.12155    0.18390    0.10770    1.000
    O94      O        0.55238    0.50330    0.07110    1.000
    O95      O        0.43912    0.29730    0.38532    1.000
    O96      O        0.52120    0.29360    0.00518    1.000
