# CIF file generated by openbabel 3.1.0, see https://openbabel.org
data_I
_chemical_name_common 'GEDDEA_clean'
_cell_length_a 18.2463
_cell_length_b 18.2463
_cell_length_c 18.2463
_cell_angle_alpha 95.0087
_cell_angle_beta 95.0087
_cell_angle_gamma 95.0087
_space_group_name_H-M_alt 'P 1'
_space_group_name_Hall 'P 1'
loop_
    _symmetry_equiv_pos_as_xyz
    x,y,z
loop_
    _atom_site_label
    _atom_site_type_symbol
    _atom_site_fract_x
    _atom_site_fract_y
    _atom_site_fract_z
    _atom_site_occupancy
    Ni1      Ni       0.74640    0.41636    0.22308    1.000
    Ni2      Ni       0.58009    0.27440    0.79512    1.000
    Ni3      Ni       0.62978    0.53739    0.24243    1.000
    Ni4      Ni       0.82520    0.29418    0.29586    1.000
    Ni5      Ni       0.22308    0.74640    0.41636    1.000
    Ni6      Ni       0.79512    0.58009    0.27440    1.000
    Ni7      Ni       0.24243    0.62978    0.53739    1.000
    Ni8      Ni       0.29586    0.82520    0.29418    1.000
    Ni9      Ni       0.41636    0.22308    0.74640    1.000
    Ni10     Ni       0.27440    0.79512    0.58009    1.000
    Ni11     Ni       0.53739    0.24243    0.62978    1.000
    Ni12     Ni       0.29418    0.29586    0.82520    1.000
    Ni13     Ni       0.25360    0.58364    0.77692    1.000
    Ni14     Ni       0.41991    0.72560    0.20488    1.000
    Ni15     Ni       0.37022    0.46261    0.75757    1.000
    Ni16     Ni       0.17480    0.70582    0.70414    1.000
    Ni17     Ni       0.77692    0.25360    0.58364    1.000
    Ni18     Ni       0.20488    0.41991    0.72560    1.000
    Ni19     Ni       0.75757    0.37022    0.46261    1.000
    Ni20     Ni       0.70414    0.17480    0.70582    1.000
    Ni21     Ni       0.58364    0.77692    0.25360    1.000
    Ni22     Ni       0.72560    0.20488    0.41991    1.000
    Ni23     Ni       0.46261    0.75757    0.37022    1.000
    Ni24     Ni       0.70582    0.70414    0.17480    1.000
    H1       H        0.72460    0.29620    0.00390    1.000
    H2       H        0.80340    0.11930    0.89590    1.000
    H3       H        0.87770    0.09940    0.00800    1.000
    H4       H        0.88520    0.18880    0.10820    1.000
    H5       H        0.71360    0.48680    0.34690    1.000
    H6       H        0.57240    0.15480    0.72060    1.000
    H7       H        0.96140    0.47190    0.24090    1.000
    H8       H        0.00350    0.50780    0.17730    1.000
    H9       H        0.95680    0.55740    0.22900    1.000
    H10      H        0.83850    0.54890    0.04290    1.000
    H11      H        0.88260    0.60400    0.10840    1.000
    H12      H        0.92690    0.55500    0.05370    1.000
    H13      H        0.49800    0.39520    0.14200    1.000
    H14      H        0.52060    0.46750    0.10230    1.000
    H15      H        0.49340    0.39120    0.05370    1.000
    H16      H        0.68040    0.43080    0.01280    1.000
    H17      H        0.59530    0.41670    0.98120    1.000
    H18      H        0.62430    0.49020    0.03350    1.000
    H19      H        0.00390    0.72460    0.29620    1.000
    H20      H        0.89590    0.80340    0.11930    1.000
    H21      H        0.00800    0.87770    0.09940    1.000
    H22      H        0.10820    0.88520    0.18880    1.000
    H23      H        0.34690    0.71360    0.48680    1.000
    H24      H        0.72060    0.57240    0.15480    1.000
    H25      H        0.24090    0.96140    0.47190    1.000
    H26      H        0.17730    0.00350    0.50780    1.000
    H27      H        0.22900    0.95680    0.55740    1.000
    H28      H        0.04290    0.83850    0.54890    1.000
    H29      H        0.10840    0.88260    0.60400    1.000
    H30      H        0.05370    0.92690    0.55500    1.000
    H31      H        0.14200    0.49800    0.39520    1.000
    H32      H        0.10230    0.52060    0.46750    1.000
    H33      H        0.05370    0.49340    0.39120    1.000
    H34      H        0.01280    0.68040    0.43080    1.000
    H35      H        0.98120    0.59530    0.41670    1.000
    H36      H        0.03350    0.62430    0.49020    1.000
    H37      H        0.29620    0.00390    0.72460    1.000
    H38      H        0.11930    0.89590    0.80340    1.000
    H39      H        0.09940    0.00800    0.87770    1.000
    H40      H        0.18880    0.10820    0.88520    1.000
    H41      H        0.48680    0.34690    0.71360    1.000
    H42      H        0.15480    0.72060    0.57240    1.000
    H43      H        0.47190    0.24090    0.96140    1.000
    H44      H        0.50780    0.17730    0.00350    1.000
    H45      H        0.55740    0.22900    0.95680    1.000
    H46      H        0.54890    0.04290    0.83850    1.000
    H47      H        0.60400    0.10840    0.88260    1.000
    H48      H        0.55500    0.05370    0.92690    1.000
    H49      H        0.39520    0.14200    0.49800    1.000
    H50      H        0.46750    0.10230    0.52060    1.000
    H51      H        0.39120    0.05370    0.49340    1.000
    H52      H        0.43080    0.01280    0.68040    1.000
    H53      H        0.41670    0.98120    0.59530    1.000
    H54      H        0.49020    0.03350    0.62430    1.000
    H55      H        0.27540    0.70380    0.99610    1.000
    H56      H        0.19660    0.88070    0.10410    1.000
    H57      H        0.12230    0.90060    0.99200    1.000
    H58      H        0.11480    0.81120    0.89180    1.000
    H59      H        0.28640    0.51320    0.65310    1.000
    H60      H        0.42760    0.84520    0.27940    1.000
    H61      H        0.03860    0.52810    0.75910    1.000
    H62      H        0.99650    0.49220    0.82270    1.000
    H63      H        0.04320    0.44260    0.77100    1.000
    H64      H        0.16150    0.45110    0.95710    1.000
    H65      H        0.11740    0.39600    0.89160    1.000
    H66      H        0.07310    0.44500    0.94630    1.000
    H67      H        0.50200    0.60480    0.85800    1.000
    H68      H        0.47940    0.53250    0.89770    1.000
    H69      H        0.50660    0.60880    0.94630    1.000
    H70      H        0.31960    0.56920    0.98720    1.000
    H71      H        0.40470    0.58330    0.01880    1.000
    H72      H        0.37570    0.50980    0.96650    1.000
    H73      H        0.99610    0.27540    0.70380    1.000
    H74      H        0.10410    0.19660    0.88070    1.000
    H75      H        0.99200    0.12230    0.90060    1.000
    H76      H        0.89180    0.11480    0.81120    1.000
    H77      H        0.65310    0.28640    0.51320    1.000
    H78      H        0.27940    0.42760    0.84520    1.000
    H79      H        0.75910    0.03860    0.52810    1.000
    H80      H        0.82270    0.99650    0.49220    1.000
    H81      H        0.77100    0.04320    0.44260    1.000
    H82      H        0.95710    0.16150    0.45110    1.000
    H83      H        0.89160    0.11740    0.39600    1.000
    H84      H        0.94630    0.07310    0.44500    1.000
    H85      H        0.85800    0.50200    0.60480    1.000
    H86      H        0.89770    0.47940    0.53250    1.000
    H87      H        0.94630    0.50660    0.60880    1.000
    H88      H        0.98720    0.31960    0.56920    1.000
    H89      H        0.01880    0.40470    0.58330    1.000
    H90      H        0.96650    0.37570    0.50980    1.000
    H91      H        0.70380    0.99610    0.27540    1.000
    H92      H        0.88070    0.10410    0.19660    1.000
    H93      H        0.90060    0.99200    0.12230    1.000
    H94      H        0.81120    0.89180    0.11480    1.000
    H95      H        0.51320    0.65310    0.28640    1.000
    H96      H        0.84520    0.27940    0.42760    1.000
    H97      H        0.52810    0.75910    0.03860    1.000
    H98      H        0.49220    0.82270    0.99650    1.000
    H99      H        0.44260    0.77100    0.04320    1.000
    H100     H        0.45110    0.95710    0.16150    1.000
    H101     H        0.39600    0.89160    0.11740    1.000
    H102     H        0.44500    0.94630    0.07310    1.000
    H103     H        0.60480    0.85800    0.50200    1.000
    H104     H        0.53250    0.89770    0.47940    1.000
    H105     H        0.60880    0.94630    0.50660    1.000
    H106     H        0.56920    0.98720    0.31960    1.000
    H107     H        0.58330    0.01880    0.40470    1.000
    H108     H        0.50980    0.96650    0.37570    1.000
    C1       C        0.80490    0.30120    0.13190    1.000
    C2       C        0.70940    0.21900    0.87430    1.000
    C3       C        0.80850    0.25190    0.06870    1.000
    C4       C        0.75700    0.25810    0.00330    1.000
    C5       C        0.75530    0.20830    0.94050    1.000
    C6       C        0.80230    0.15120    0.93980    1.000
    C7       C        0.84960    0.14080    0.00610    1.000
    C8       C        0.85180    0.19330    0.06630    1.000
    C9       C        0.95920    0.50800    0.20400    1.000
    C10      C        0.88190    0.55610    0.07930    1.000
    C11      C        0.52110    0.41370    0.09980    1.000
    C12      C        0.62960    0.43750    0.02360    1.000
    C13      C        0.13190    0.80490    0.30120    1.000
    C14      C        0.87430    0.70940    0.21900    1.000
    C15      C        0.06870    0.80850    0.25190    1.000
    C16      C        0.00330    0.75700    0.25810    1.000
    C17      C        0.94050    0.75530    0.20830    1.000
    C18      C        0.93980    0.80230    0.15120    1.000
    C19      C        0.00610    0.84960    0.14080    1.000
    C20      C        0.06630    0.85180    0.19330    1.000
    C21      C        0.20400    0.95920    0.50800    1.000
    C22      C        0.07930    0.88190    0.55610    1.000
    C23      C        0.09980    0.52110    0.41370    1.000
    C24      C        0.02360    0.62960    0.43750    1.000
    C25      C        0.30120    0.13190    0.80490    1.000
    C26      C        0.21900    0.87430    0.70940    1.000
    C27      C        0.25190    0.06870    0.80850    1.000
    C28      C        0.25810    0.00330    0.75700    1.000
    C29      C        0.20830    0.94050    0.75530    1.000
    C30      C        0.15120    0.93980    0.80230    1.000
    C31      C        0.14080    0.00610    0.84960    1.000
    C32      C        0.19330    0.06630    0.85180    1.000
    C33      C        0.50800    0.20400    0.95920    1.000
    C34      C        0.55610    0.07930    0.88190    1.000
    C35      C        0.41370    0.09980    0.52110    1.000
    C36      C        0.43750    0.02360    0.62960    1.000
    C37      C        0.19510    0.69880    0.86810    1.000
    C38      C        0.29060    0.78100    0.12570    1.000
    C39      C        0.19150    0.74810    0.93130    1.000
    C40      C        0.24300    0.74190    0.99670    1.000
    C41      C        0.24470    0.79170    0.05950    1.000
    C42      C        0.19770    0.84880    0.06020    1.000
    C43      C        0.15040    0.85920    0.99390    1.000
    C44      C        0.14820    0.80670    0.93370    1.000
    C45      C        0.04080    0.49200    0.79600    1.000
    C46      C        0.11810    0.44390    0.92070    1.000
    C47      C        0.47890    0.58630    0.90020    1.000
    C48      C        0.37040    0.56250    0.97640    1.000
    C49      C        0.86810    0.19510    0.69880    1.000
    C50      C        0.12570    0.29060    0.78100    1.000
    C51      C        0.93130    0.19150    0.74810    1.000
    C52      C        0.99670    0.24300    0.74190    1.000
    C53      C        0.05950    0.24470    0.79170    1.000
    C54      C        0.06020    0.19770    0.84880    1.000
    C55      C        0.99390    0.15040    0.85920    1.000
    C56      C        0.93370    0.14820    0.80670    1.000
    C57      C        0.79600    0.04080    0.49200    1.000
    C58      C        0.92070    0.11810    0.44390    1.000
    C59      C        0.90020    0.47890    0.58630    1.000
    C60      C        0.97640    0.37040    0.56250    1.000
    C61      C        0.69880    0.86810    0.19510    1.000
    C62      C        0.78100    0.12570    0.29060    1.000
    C63      C        0.74810    0.93130    0.19150    1.000
    C64      C        0.74190    0.99670    0.24300    1.000
    C65      C        0.79170    0.05950    0.24470    1.000
    C66      C        0.84880    0.06020    0.19770    1.000
    C67      C        0.85920    0.99390    0.15040    1.000
    C68      C        0.80670    0.93370    0.14820    1.000
    C69      C        0.49200    0.79600    0.04080    1.000
    C70      C        0.44390    0.92070    0.11810    1.000
    C71      C        0.58630    0.90020    0.47890    1.000
    C72      C        0.56250    0.97640    0.37040    1.000
    S1       S        0.65177    0.31512    0.32043    1.000
    S2       S        0.86805    0.46096    0.36592    1.000
    S3       S        0.87804    0.48358    0.13954    1.000
    S4       S        0.60967    0.39159    0.10222    1.000
    S5       S        0.32043    0.65177    0.31512    1.000
    S6       S        0.36592    0.86805    0.46096    1.000
    S7       S        0.13954    0.87804    0.48358    1.000
    S8       S        0.10222    0.60967    0.39159    1.000
    S9       S        0.31512    0.32043    0.65177    1.000
    S10      S        0.46096    0.36592    0.86805    1.000
    S11      S        0.48358    0.13954    0.87804    1.000
    S12      S        0.39159    0.10222    0.60967    1.000
    S13      S        0.34823    0.68488    0.67957    1.000
    S14      S        0.13195    0.53904    0.63408    1.000
    S15      S        0.12196    0.51642    0.86046    1.000
    S16      S        0.39033    0.60841    0.89778    1.000
    S17      S        0.67957    0.34823    0.68488    1.000
    S18      S        0.63408    0.13195    0.53904    1.000
    S19      S        0.86046    0.12196    0.51642    1.000
    S20      S        0.89778    0.39033    0.60841    1.000
    S21      S        0.68488    0.67957    0.34823    1.000
    S22      S        0.53904    0.63408    0.13195    1.000
    S23      S        0.51642    0.86046    0.12196    1.000
    S24      S        0.60841    0.89778    0.39033    1.000
    O1       O        0.85360    0.29250    0.18880    1.000
    O2       O        0.75980    0.34980    0.13590    1.000
    O3       O        0.65210    0.25170    0.87670    1.000
    O4       O        0.72980    0.18960    0.81370    1.000
    O5       O        0.71693    0.49763    0.29443    1.000
    O6       O        0.60100    0.20200    0.71170    1.000
    O7       O        0.64690    0.24060    0.34810    1.000
    O8       O        0.67200    0.37500    0.38360    1.000
    O9       O        0.71050    0.31990    0.26880    1.000
    O10      O        0.58120    0.32810    0.28130    1.000
    O11      O        0.84220    0.40710    0.30070    1.000
    O12      O        0.81480    0.45720    0.42200    1.000
    O13      O        0.94150    0.44100    0.39730    1.000
    O14      O        0.87320    0.53570    0.34060    1.000
    O15      O        0.81367    0.50087    0.18557    1.000
    O16      O        0.65050    0.44500    0.17010    1.000
    O17      O        0.18880    0.85360    0.29250    1.000
    O18      O        0.13590    0.75980    0.34980    1.000
    O19      O        0.87670    0.65210    0.25170    1.000
    O20      O        0.81370    0.72980    0.18960    1.000
    O21      O        0.29443    0.71693    0.49763    1.000
    O22      O        0.71170    0.60100    0.20200    1.000
    O23      O        0.34810    0.64690    0.24060    1.000
    O24      O        0.38360    0.67200    0.37500    1.000
    O25      O        0.26880    0.71050    0.31990    1.000
    O26      O        0.28130    0.58120    0.32810    1.000
    O27      O        0.30070    0.84220    0.40710    1.000
    O28      O        0.42200    0.81480    0.45720    1.000
    O29      O        0.39730    0.94150    0.44100    1.000
    O30      O        0.34060    0.87320    0.53570    1.000
    O31      O        0.18557    0.81367    0.50087    1.000
    O32      O        0.17010    0.65050    0.44500    1.000
    O33      O        0.29250    0.18880    0.85360    1.000
    O34      O        0.34980    0.13590    0.75980    1.000
    O35      O        0.25170    0.87670    0.65210    1.000
    O36      O        0.18960    0.81370    0.72980    1.000
    O37      O        0.49763    0.29443    0.71693    1.000
    O38      O        0.20200    0.71170    0.60100    1.000
    O39      O        0.24060    0.34810    0.64690    1.000
    O40      O        0.37500    0.38360    0.67200    1.000
    O41      O        0.31990    0.26880    0.71050    1.000
    O42      O        0.32810    0.28130    0.58120    1.000
    O43      O        0.40710    0.30070    0.84220    1.000
    O44      O        0.45720    0.42200    0.81480    1.000
    O45      O        0.44100    0.39730    0.94150    1.000
    O46      O        0.53570    0.34060    0.87320    1.000
    O47      O        0.50087    0.18557    0.81367    1.000
    O48      O        0.44500    0.17010    0.65050    1.000
    O49      O        0.14640    0.70750    0.81120    1.000
    O50      O        0.24020    0.65020    0.86410    1.000
    O51      O        0.34790    0.74830    0.12330    1.000
    O52      O        0.27020    0.81040    0.18630    1.000
    O53      O        0.28307    0.50237    0.70557    1.000
    O54      O        0.39900    0.79800    0.28830    1.000
    O55      O        0.35310    0.75940    0.65190    1.000
    O56      O        0.32800    0.62500    0.61640    1.000
    O57      O        0.28950    0.68010    0.73120    1.000
    O58      O        0.41880    0.67190    0.71870    1.000
    O59      O        0.15780    0.59290    0.69930    1.000
    O60      O        0.18520    0.54280    0.57800    1.000
    O61      O        0.05850    0.55900    0.60270    1.000
    O62      O        0.12680    0.46430    0.65940    1.000
    O63      O        0.18633    0.49913    0.81443    1.000
    O64      O        0.34950    0.55500    0.82990    1.000
    O65      O        0.81120    0.14640    0.70750    1.000
    O66      O        0.86410    0.24020    0.65020    1.000
    O67      O        0.12330    0.34790    0.74830    1.000
    O68      O        0.18630    0.27020    0.81040    1.000
    O69      O        0.70557    0.28307    0.50237    1.000
    O70      O        0.28830    0.39900    0.79800    1.000
    O71      O        0.65190    0.35310    0.75940    1.000
    O72      O        0.61640    0.32800    0.62500    1.000
    O73      O        0.73120    0.28950    0.68010    1.000
    O74      O        0.71870    0.41880    0.67190    1.000
    O75      O        0.69930    0.15780    0.59290    1.000
    O76      O        0.57800    0.18520    0.54280    1.000
    O77      O        0.60270    0.05850    0.55900    1.000
    O78      O        0.65940    0.12680    0.46430    1.000
    O79      O        0.81443    0.18633    0.49913    1.000
    O80      O        0.82990    0.34950    0.55500    1.000
    O81      O        0.70750    0.81120    0.14640    1.000
    O82      O        0.65020    0.86410    0.24020    1.000
    O83      O        0.74830    0.12330    0.34790    1.000
    O84      O        0.81040    0.18630    0.27020    1.000
    O85      O        0.50237    0.70557    0.28307    1.000
    O86      O        0.79800    0.28830    0.39900    1.000
    O87      O        0.75940    0.65190    0.35310    1.000
    O88      O        0.62500    0.61640    0.32800    1.000
    O89      O        0.68010    0.73120    0.28950    1.000
    O90      O        0.67190    0.71870    0.41880    1.000
    O91      O        0.59290    0.69930    0.15780    1.000
    O92      O        0.54280    0.57800    0.18520    1.000
    O93      O        0.55900    0.60270    0.05850    1.000
    O94      O        0.46430    0.65940    0.12680    1.000
    O95      O        0.49913    0.81443    0.18633    1.000
    O96      O        0.55500    0.82990    0.34950    1.000
