# CIF file generated by openbabel 3.1.0, see https://openbabel.org
data_I
_chemical_name_common 'image0'
_cell_length_a 10.1916
_cell_length_b 16.422
_cell_length_c 15.5624
_cell_angle_alpha 90
_cell_angle_beta 107.073
_cell_angle_gamma 90
_space_group_name_H-M_alt 'P 1'
_space_group_name_Hall 'P 1'
loop_
    _symmetry_equiv_pos_as_xyz
    x,y,z
loop_
    _atom_site_label
    _atom_site_type_symbol
    _atom_site_fract_x
    _atom_site_fract_y
    _atom_site_fract_z
    _atom_site_occupancy
    Zn1      Zn       0.51175    0.38804    0.14682    1.000
    Zn2      Zn       0.23552    0.29204    0.00155    1.000
    O1       O        0.37160    0.42089    0.20479    1.000
    O2       O        0.68550    0.43216    0.23088    1.000
    O3       O        0.31550    0.37515    0.93189    1.000
    O4       O        0.45820    0.45172    0.03661    1.000
    O5       O        0.49840    0.77088    0.82652    1.000
    O6       O        0.20100    0.37106    0.09068    1.000
    O7       O        0.72710    0.36330    0.11942    1.000
    O8       O        0.59740    0.72151    0.96410    1.000
    O9       O        0.09470    0.27180    0.88710    1.000
    H1       H        0.16240    0.29700    0.87820    1.000
    H2       H        0.09150    0.28430    0.93940    1.000
    C1       C        0.39060    0.43640    0.95740    1.000
    C2       C        0.39440    0.49980    0.88780    1.000
    C3       C        0.27300    0.52940    0.63560    1.000
    C4       C        0.24750    0.40200    0.16540    1.000
    C5       C        0.45830    0.57460    0.91790    1.000
    H3       H        0.50050    0.58400    0.97870    1.000
    C6       C        0.19540    0.45200    0.30450    1.000
    H4       H        0.28840    0.46340    0.32850    1.000
    C7       C        0.14710    0.42140    0.21710    1.000
    C8       C        0.10650    0.46610    0.35670    1.000
    C9       C        0.00780    0.40470    0.18050    1.000
    H5       H        0.97550    0.38300    0.12290    1.000
    C10      C        0.91540    0.42060    0.23080    1.000
    C11      C        0.33100    0.55950    0.57200    1.000
    H6       H        0.40930    0.59180    0.59050    1.000
    C12      C        0.76750    0.40350    0.18960    1.000
    C13      C        0.96790    0.45020    0.31820    1.000
    H7       H        0.90780    0.45960    0.35200    1.000
    C14      C        0.33350    0.54510    0.73370    1.000
    C15      C        0.27480    0.54270    0.48080    1.000
    H8       H        0.31330    0.56580    0.43920    1.000
    C16      C        0.39410    0.62090    0.76330    1.000
    H9       H        0.39220    0.66200    0.72190    1.000
    C17      C        0.33320    0.48590    0.79810    1.000
    H10      H        0.29070    0.43610    0.77980    1.000
    C18      C        0.16100    0.49140    0.45120    1.000
    C19      C        0.52350    0.71560    0.88450    1.000
    C20      C        0.15620    0.48030    0.60520    1.000
    H11      H        0.11520    0.45950    0.64660    1.000
    C21      C        0.45640    0.63440    0.85370    1.000
    C22      C        0.10030    0.46210    0.51510    1.000
    H12      H        0.02170    0.43010    0.49670    1.000
    Zn3      Zn       0.48825    0.88804    0.85318    1.000
    Zn4      Zn       0.76448    0.79204    0.99845    1.000
    O10      O        0.62840    0.92089    0.79521    1.000
    O11      O        0.31450    0.93216    0.76912    1.000
    O12      O        0.68450    0.87515    0.06811    1.000
    O13      O        0.54180    0.95172    0.96339    1.000
    O14      O        0.50160    0.27088    0.17348    1.000
    O15      O        0.79900    0.87106    0.90932    1.000
    O16      O        0.27290    0.86330    0.88058    1.000
    O17      O        0.40260    0.22151    0.03590    1.000
    O18      O        0.90530    0.77180    0.11290    1.000
    H13      H        0.83760    0.79700    0.12180    1.000
    H14      H        0.90850    0.78430    0.06060    1.000
    C23      C        0.60940    0.93640    0.04260    1.000
    C24      C        0.60560    0.99980    0.11220    1.000
    C25      C        0.72700    0.02940    0.36440    1.000
    C26      C        0.75250    0.90200    0.83460    1.000
    C27      C        0.54170    0.07460    0.08210    1.000
    H15      H        0.49950    0.08400    0.02130    1.000
    C28      C        0.80460    0.95200    0.69550    1.000
    H16      H        0.71160    0.96340    0.67150    1.000
    C29      C        0.85290    0.92140    0.78290    1.000
    C30      C        0.89350    0.96610    0.64330    1.000
    C31      C        0.99220    0.90470    0.81950    1.000
    H17      H        0.02450    0.88300    0.87710    1.000
    C32      C        0.08460    0.92060    0.76920    1.000
    C33      C        0.66900    0.05950    0.42800    1.000
    H18      H        0.59070    0.09180    0.40950    1.000
    C34      C        0.23250    0.90350    0.81040    1.000
    C35      C        0.03210    0.95020    0.68180    1.000
    H19      H        0.09220    0.95960    0.64800    1.000
    C36      C        0.66650    0.04510    0.26630    1.000
    C37      C        0.72520    0.04270    0.51920    1.000
    H20      H        0.68670    0.06580    0.56080    1.000
    C38      C        0.60590    0.12090    0.23670    1.000
    H21      H        0.60780    0.16200    0.27810    1.000
    C39      C        0.66680    0.98590    0.20190    1.000
    H22      H        0.70930    0.93610    0.22020    1.000
    C40      C        0.83900    0.99140    0.54880    1.000
    C41      C        0.47650    0.21560    0.11550    1.000
    C42      C        0.84380    0.98030    0.39480    1.000
    H23      H        0.88480    0.95950    0.35340    1.000
    C43      C        0.54360    0.13440    0.14630    1.000
    C44      C        0.89970    0.96210    0.48490    1.000
    H24      H        0.97830    0.93010    0.50330    1.000
