# CIF file generated by openbabel 3.1.0, see https://openbabel.org
data_I
_chemical_name_common 'image0'
_cell_length_a 17.2619
_cell_length_b 10.0391
_cell_length_c 17.5996
_cell_angle_alpha 90
_cell_angle_beta 90
_cell_angle_gamma 90
_space_group_name_H-M_alt 'P 1'
_space_group_name_Hall 'P 1'
loop_
    _symmetry_equiv_pos_as_xyz
    x,y,z
loop_
    _atom_site_label
    _atom_site_type_symbol
    _atom_site_fract_x
    _atom_site_fract_y
    _atom_site_fract_z
    _atom_site_occupancy
    Tm1      Tm       0.82167    0.88721    0.27328    1.000
    Tm2      Tm       0.52152    0.84050    0.25798    1.000
    O1       O        0.92080    0.89710    0.19510    1.000
    O2       O        0.08290    0.06870    0.86050    1.000
    O3       O        0.74910    0.96230    0.16940    1.000
    O4       O        0.69620    0.23030    0.86900    1.000
    O5       O        0.71560    0.94800    0.33140    1.000
    C1       C        0.67970    0.93900    0.15290    1.000
    O6       O        0.63170    0.88030    0.19620    1.000
    O7       O        0.59210    0.91630    0.36350    1.000
    C2       C        0.66140    0.95060    0.37760    1.000
    C3       C        0.67990    0.00490    0.45380    1.000
    C4       C        0.75020    0.05250    0.47780    1.000
    H1       H        0.79480    0.05040    0.44830    1.000
    C5       C        0.65020    0.98020    0.07720    1.000
    S1       S        0.70067    0.09240    0.02162    1.000
    O8       O        0.57560    0.11860    0.67230    1.000
    C6       C        0.63790    0.15890    0.87980    1.000
    O9       O        0.69430    0.19580    0.70310    1.000
    O10      O        0.58210    0.15040    0.83350    1.000
    C7       C        0.64670    0.13900    0.65910    1.000
    S2       S        0.61014    0.02050    0.52289    1.000
    S3       S        0.03828    0.95890    0.00787    1.000
    O11      O        0.03600    0.81990    0.16060    1.000
    C8       C        0.58420    0.93660    0.04260    1.000
    H2       H        0.55010    0.87530    0.06390    1.000
    C9       C        0.96530    0.95230    0.07380    1.000
    C10      C        0.57400    0.99610    0.97030    1.000
    H3       H        0.53170    0.97850    0.93920    1.000
    C11      C        0.63140    0.08090    0.95080    1.000
    C12      C        0.97600    0.88500    0.14730    1.000
    C13      C        0.89870    0.01360    0.04900    1.000
    H4       H        0.85320    0.01900    0.07710    1.000
    C14      C        0.67510    0.09470    0.58320    1.000
    C15      C        0.74760    0.10560    0.55290    1.000
    H5       H        0.78980    0.14280    0.57800    1.000
    O12      O        0.96670    0.15190    0.82720    1.000
    C16      C        0.98000    0.04610    0.94560    1.000
    C17      C        0.90840    0.06800    0.97490    1.000
    H6       H        0.86960    0.11380    0.94910    1.000
    C18      C        0.01290    0.09170    0.87190    1.000
    Tm3      Tm       0.17833    0.11279    0.77328    1.000
    Tm4      Tm       0.47848    0.15950    0.75798    1.000
    O13      O        0.07920    0.10290    0.69510    1.000
    O14      O        0.91710    0.93130    0.36050    1.000
    O15      O        0.25090    0.03770    0.66940    1.000
    O16      O        0.30380    0.76970    0.36900    1.000
    O17      O        0.28440    0.05200    0.83140    1.000
    C19      C        0.32030    0.06100    0.65290    1.000
    O18      O        0.36830    0.11970    0.69620    1.000
    O19      O        0.40790    0.08370    0.86350    1.000
    C20      C        0.33860    0.04940    0.87760    1.000
    C21      C        0.32010    0.99510    0.95380    1.000
    C22      C        0.24980    0.94750    0.97780    1.000
    H7       H        0.20520    0.94960    0.94830    1.000
    C23      C        0.34980    0.01980    0.57720    1.000
    S4       S        0.29933    0.90760    0.52162    1.000
    O20      O        0.42440    0.88140    0.17230    1.000
    C24      C        0.36210    0.84110    0.37980    1.000
    O21      O        0.30570    0.80420    0.20310    1.000
    O22      O        0.41790    0.84960    0.33350    1.000
    C25      C        0.35330    0.86100    0.15910    1.000
    S5       S        0.38986    0.97950    0.02289    1.000
    S6       S        0.96172    0.04110    0.50787    1.000
    O23      O        0.96400    0.18010    0.66060    1.000
    C26      C        0.41580    0.06340    0.54260    1.000
    H8       H        0.44990    0.12470    0.56390    1.000
    C27      C        0.03470    0.04770    0.57380    1.000
    C28      C        0.42600    0.00390    0.47030    1.000
    H9       H        0.46830    0.02150    0.43920    1.000
    C29      C        0.36860    0.91910    0.45080    1.000
    C30      C        0.02400    0.11500    0.64730    1.000
    C31      C        0.10130    0.98640    0.54900    1.000
    H10      H        0.14680    0.98100    0.57710    1.000
    C32      C        0.32490    0.90530    0.08320    1.000
    C33      C        0.25240    0.89440    0.05290    1.000
    H11      H        0.21020    0.85720    0.07800    1.000
    O24      O        0.03330    0.84810    0.32720    1.000
    C34      C        0.02000    0.95390    0.44560    1.000
    C35      C        0.09160    0.93200    0.47490    1.000
    H12      H        0.13040    0.88620    0.44910    1.000
    C36      C        0.98710    0.90830    0.37190    1.000
    Tm5      Tm       0.32167    0.61279    0.27328    1.000
    Tm6      Tm       0.02152    0.65950    0.25798    1.000
    O25      O        0.42080    0.60290    0.19510    1.000
    O26      O        0.58290    0.43130    0.86050    1.000
    O27      O        0.24910    0.53770    0.16940    1.000
    O28      O        0.19620    0.26970    0.86900    1.000
    O29      O        0.21560    0.55200    0.33140    1.000
    C37      C        0.17970    0.56100    0.15290    1.000
    O30      O        0.13170    0.61970    0.19620    1.000
    O31      O        0.09210    0.58370    0.36350    1.000
    C38      C        0.16140    0.54940    0.37760    1.000
    C39      C        0.17990    0.49510    0.45380    1.000
    C40      C        0.25020    0.44750    0.47780    1.000
    H13      H        0.29480    0.44960    0.44830    1.000
    C41      C        0.15020    0.51980    0.07720    1.000
    S7       S        0.20067    0.40760    0.02162    1.000
    O32      O        0.07560    0.38140    0.67230    1.000
    C42      C        0.13790    0.34110    0.87980    1.000
    O33      O        0.19430    0.30420    0.70310    1.000
    O34      O        0.08210    0.34960    0.83350    1.000
    C43      C        0.14670    0.36100    0.65910    1.000
    S8       S        0.11014    0.47950    0.52289    1.000
    S9       S        0.53828    0.54110    0.00787    1.000
    O35      O        0.53600    0.68010    0.16060    1.000
    C44      C        0.08420    0.56340    0.04260    1.000
    H14      H        0.05010    0.62470    0.06390    1.000
    C45      C        0.46530    0.54770    0.07380    1.000
    C46      C        0.07400    0.50390    0.97030    1.000
    H15      H        0.03170    0.52150    0.93920    1.000
    C47      C        0.13140    0.41910    0.95080    1.000
    C48      C        0.47600    0.61500    0.14730    1.000
    C49      C        0.39870    0.48640    0.04900    1.000
    H16      H        0.35320    0.48100    0.07710    1.000
    C50      C        0.17510    0.40530    0.58320    1.000
    C51      C        0.24760    0.39440    0.55290    1.000
    H17      H        0.28980    0.35720    0.57800    1.000
    O36      O        0.46670    0.34810    0.82720    1.000
    C52      C        0.48000    0.45390    0.94560    1.000
    C53      C        0.40840    0.43200    0.97490    1.000
    H18      H        0.36960    0.38620    0.94910    1.000
    C54      C        0.51290    0.40830    0.87190    1.000
    Tm7      Tm       0.67833    0.38721    0.77328    1.000
    Tm8      Tm       0.97848    0.34050    0.75798    1.000
    O37      O        0.57920    0.39710    0.69510    1.000
    O38      O        0.41710    0.56870    0.36050    1.000
    O39      O        0.75090    0.46230    0.66940    1.000
    O40      O        0.80380    0.73030    0.36900    1.000
    O41      O        0.78440    0.44800    0.83140    1.000
    C55      C        0.82030    0.43900    0.65290    1.000
    O42      O        0.86830    0.38030    0.69620    1.000
    O43      O        0.90790    0.41630    0.86350    1.000
    C56      C        0.83860    0.45060    0.87760    1.000
    C57      C        0.82010    0.50490    0.95380    1.000
    C58      C        0.74980    0.55250    0.97780    1.000
    H19      H        0.70520    0.55040    0.94830    1.000
    C59      C        0.84980    0.48020    0.57720    1.000
    S10      S        0.79933    0.59240    0.52162    1.000
    O44      O        0.92440    0.61860    0.17230    1.000
    C60      C        0.86210    0.65890    0.37980    1.000
    O45      O        0.80570    0.69580    0.20310    1.000
    O46      O        0.91790    0.65040    0.33350    1.000
    C61      C        0.85330    0.63900    0.15910    1.000
    S11      S        0.88986    0.52050    0.02289    1.000
    S12      S        0.46172    0.45890    0.50787    1.000
    O47      O        0.46400    0.31990    0.66060    1.000
    C62      C        0.91580    0.43660    0.54260    1.000
    H20      H        0.94990    0.37530    0.56390    1.000
    C63      C        0.53470    0.45230    0.57380    1.000
    C64      C        0.92600    0.49610    0.47030    1.000
    H21      H        0.96830    0.47850    0.43920    1.000
    C65      C        0.86860    0.58090    0.45080    1.000
    C66      C        0.52400    0.38500    0.64730    1.000
    C67      C        0.60130    0.51360    0.54900    1.000
    H22      H        0.64680    0.51900    0.57710    1.000
    C68      C        0.82490    0.59470    0.08320    1.000
    C69      C        0.75240    0.60560    0.05290    1.000
    H23      H        0.71020    0.64280    0.07800    1.000
    O48      O        0.53330    0.65190    0.32720    1.000
    C70      C        0.52000    0.54610    0.44560    1.000
    C71      C        0.59160    0.56800    0.47490    1.000
    H24      H        0.63040    0.61380    0.44910    1.000
    C72      C        0.48710    0.59170    0.37190    1.000
