# CIF file generated by openbabel 3.1.0, see https://openbabel.org
data_I
_chemical_name_common 'image0'
_cell_length_a 10.984
_cell_length_b 16.101
_cell_length_c 19.692
_cell_angle_alpha 74.149
_cell_angle_beta 74.035
_cell_angle_gamma 72.054
_space_group_name_H-M_alt 'P 1'
_space_group_name_Hall 'P 1'
loop_
    _symmetry_equiv_pos_as_xyz
    x,y,z
loop_
    _atom_site_label
    _atom_site_type_symbol
    _atom_site_fract_x
    _atom_site_fract_y
    _atom_site_fract_z
    _atom_site_occupancy
    Eu1      Eu       0.39854    0.90186    0.23900    1.000
    Eu2      Eu       0.94380    0.17628    0.22658    1.000
    O1       O        0.33210    0.76520    0.32000    1.000
    O2       O        0.31950    0.87410    0.37150    1.000
    O3       O        0.13620    0.83830    0.64120    1.000
    O4       O        0.08830    0.71030    0.70110    1.000
    O5       O        0.98930    0.02370    0.24300    1.000
    O6       O        0.59610    0.93580    0.25060    1.000
    O7       O        0.59640    0.79460    0.27970    1.000
    O8       O        0.13340    0.14070    0.27780    1.000
    O9       O        0.32660    0.04260    0.27330    1.000
    O10      O        0.72790    0.13700    0.25170    1.000
    O11      O        0.71950    0.27910    0.22660    1.000
    O12      O        0.05430    0.28940    0.13940    1.000
    O13      O        0.14340    0.15060    0.12690    1.000
    O14      O        0.41700    0.13110    0.87210    1.000
    O15      O        0.57580    0.20110    0.83850    1.000
    C1       C        0.29760    0.79800    0.37480    1.000
    C2       C        0.22770    0.75170    0.44460    1.000
    C3       C        0.20690    0.77930    0.50900    1.000
    H1       H        0.23610    0.82770    0.50930    1.000
    C4       C        0.14300    0.73470    0.57230    1.000
    C5       C        0.09430    0.66510    0.57030    1.000
    H2       H        0.04930    0.63600    0.61280    1.000
    C6       C        0.11130    0.63820    0.50630    1.000
    C7       C        0.17990    0.68090    0.44360    1.000
    H3       H        0.19430    0.66260    0.40050    1.000
    C8       C        0.12240    0.76220    0.64240    1.000
    C9       C        0.05520    0.56690    0.50360    1.000
    C10      C        0.00970    0.57050    0.44450    1.000
    H4       H        0.01310    0.61920    0.40620    1.000
    C11      C        0.04040    0.49490    0.56020    1.000
    H5       H        0.06540    0.49110    0.60260    1.000
    C12      C        0.05920    0.94650    0.24400    1.000
    C13      C        0.99450    0.87410    0.24900    1.000
    C14      C        0.85950    0.89580    0.25470    1.000
    H6       H        0.81050    0.95430    0.25460    1.000
    C15      C        0.79860    0.82970    0.26050    1.000
    C16      C        0.87280    0.74250    0.26000    1.000
    H7       H        0.83050    0.69850    0.26550    1.000
    C17      C        0.01160    0.71840    0.25140    1.000
    C18      C        0.06980    0.78590    0.24700    1.000
    H8       H        0.15990    0.77250    0.24260    1.000
    C19      C        0.65510    0.85480    0.26420    1.000
    C20      C        0.08790    0.62480    0.24960    1.000
    C21      C        0.03780    0.56350    0.23530    1.000
    H9       H        0.95530    0.58170    0.22430    1.000
    C22      C        0.10930    0.47550    0.23740    1.000
    H10      H        0.07180    0.43590    0.22880    1.000
    C23      C        0.23310    0.44440    0.25150    1.000
    C24      C        0.28480    0.50700    0.26340    1.000
    H11      H        0.36880    0.48870    0.27250    1.000
    C25      C        0.21680    0.59530    0.26200    1.000
    H12      H        0.25560    0.63510    0.26930    1.000
    C26      C        0.30980    0.34930    0.25450    1.000
    C27      C        0.44440    0.32690    0.24610    1.000
    H13      H        0.48680    0.37160    0.23820    1.000
    C28      C        0.51810    0.23850    0.24930    1.000
    C29      C        0.45650    0.17170    0.25880    1.000
    H14      H        0.50510    0.11280    0.26170    1.000
    C30      C        0.32310    0.19240    0.26400    1.000
    C31      C        0.25200    0.28110    0.26310    1.000
    H15      H        0.16160    0.29480    0.26860    1.000
    C32      C        0.66380    0.21700    0.24140    1.000
    C33      C        0.25640    0.11920    0.27110    1.000
    C34      C        0.14370    0.23160    0.10860    1.000
    C35      C        0.25080    0.25890    0.04910    1.000
    C36      C        0.30700    0.21250    0.99440    1.000
    H16      H        0.27700    0.16470    0.99380    1.000
    C37      C        0.40960    0.23710    0.93950    1.000
    C38      C        0.45250    0.30770    0.94140    1.000
    H17      H        0.51990    0.32420    0.90460    1.000
    C39      C        0.39890    0.35510    0.99600    1.000
    C40      C        0.29480    0.33040    0.04910    1.000
    H18      H        0.25430    0.36300    0.08520    1.000
    C41      C        0.46910    0.18750    0.88040    1.000
    C42      C        0.46140    0.44270    0.06270    1.000
    H19      H        0.43680    0.40390    0.10540    1.000
    C43      C        0.45000    0.42960    0.99700    1.000
    C44      C        0.49110    0.48680    0.93520    1.000
    H20      H        0.48730    0.47880    0.89090    1.000
    O16      O        0.17910    0.92620    0.23910    1.000
    Eu3      Eu       0.60146    0.09814    0.76100    1.000
    Eu4      Eu       0.05620    0.82372    0.77342    1.000
    O17      O        0.66790    0.23480    0.68000    1.000
    O18      O        0.68050    0.12590    0.62850    1.000
    O19      O        0.86380    0.16170    0.35880    1.000
    O20      O        0.91170    0.28970    0.29890    1.000
    O21      O        0.01070    0.97630    0.75700    1.000
    O22      O        0.40390    0.06420    0.74940    1.000
    O23      O        0.40360    0.20540    0.72030    1.000
    O24      O        0.86660    0.85930    0.72220    1.000
    O25      O        0.67340    0.95740    0.72670    1.000
    O26      O        0.27210    0.86300    0.74830    1.000
    O27      O        0.28050    0.72090    0.77340    1.000
    O28      O        0.94570    0.71060    0.86060    1.000
    O29      O        0.85660    0.84940    0.87310    1.000
    O30      O        0.58300    0.86890    0.12790    1.000
    O31      O        0.42420    0.79890    0.16150    1.000
    C45      C        0.70240    0.20200    0.62520    1.000
    C46      C        0.77230    0.24830    0.55540    1.000
    C47      C        0.79310    0.22070    0.49100    1.000
    H21      H        0.76390    0.17230    0.49070    1.000
    C48      C        0.85700    0.26530    0.42770    1.000
    C49      C        0.90570    0.33490    0.42970    1.000
    H22      H        0.95070    0.36400    0.38720    1.000
    C50      C        0.88870    0.36180    0.49370    1.000
    C51      C        0.82010    0.31910    0.55640    1.000
    H23      H        0.80570    0.33740    0.59950    1.000
    C52      C        0.87760    0.23780    0.35760    1.000
    C53      C        0.94480    0.43310    0.49640    1.000
    C54      C        0.99030    0.42950    0.55550    1.000
    H24      H        0.98690    0.38080    0.59380    1.000
    C55      C        0.95960    0.50510    0.43980    1.000
    H25      H        0.93460    0.50890    0.39740    1.000
    C56      C        0.94080    0.05350    0.75600    1.000
    C57      C        0.00550    0.12590    0.75100    1.000
    C58      C        0.14050    0.10420    0.74530    1.000
    H26      H        0.18950    0.04570    0.74540    1.000
    C59      C        0.20140    0.17030    0.73950    1.000
    C60      C        0.12720    0.25750    0.74000    1.000
    H27      H        0.16950    0.30150    0.73450    1.000
    C61      C        0.98840    0.28160    0.74860    1.000
    C62      C        0.93020    0.21410    0.75300    1.000
    H28      H        0.84010    0.22750    0.75740    1.000
    C63      C        0.34490    0.14520    0.73580    1.000
    C64      C        0.91210    0.37520    0.75040    1.000
    C65      C        0.96220    0.43650    0.76470    1.000
    H29      H        0.04470    0.41830    0.77570    1.000
    C66      C        0.89070    0.52450    0.76260    1.000
    H30      H        0.92820    0.56410    0.77120    1.000
    C67      C        0.76690    0.55560    0.74850    1.000
    C68      C        0.71520    0.49300    0.73660    1.000
    H31      H        0.63120    0.51130    0.72750    1.000
    C69      C        0.78320    0.40470    0.73800    1.000
    H32      H        0.74440    0.36490    0.73070    1.000
    C70      C        0.69020    0.65070    0.74550    1.000
    C71      C        0.55560    0.67310    0.75390    1.000
    H33      H        0.51320    0.62840    0.76180    1.000
    C72      C        0.48190    0.76150    0.75070    1.000
    C73      C        0.54350    0.82830    0.74120    1.000
    H34      H        0.49490    0.88720    0.73830    1.000
    C74      C        0.67690    0.80760    0.73600    1.000
    C75      C        0.74800    0.71890    0.73690    1.000
    H35      H        0.83840    0.70520    0.73140    1.000
    C76      C        0.33620    0.78300    0.75860    1.000
    C77      C        0.74360    0.88080    0.72890    1.000
    C78      C        0.85630    0.76840    0.89140    1.000
    C79      C        0.74920    0.74110    0.95090    1.000
    C80      C        0.69300    0.78750    0.00560    1.000
    H36      H        0.72300    0.83530    0.00620    1.000
    C81      C        0.59040    0.76290    0.06050    1.000
    C82      C        0.54750    0.69230    0.05860    1.000
    H37      H        0.48010    0.67580    0.09540    1.000
    C83      C        0.60110    0.64490    0.00400    1.000
    C84      C        0.70520    0.66960    0.95090    1.000
    H38      H        0.74570    0.63700    0.91480    1.000
    C85      C        0.53090    0.81250    0.11960    1.000
    C86      C        0.53860    0.55730    0.93730    1.000
    H39      H        0.56320    0.59610    0.89460    1.000
    C87      C        0.55000    0.57040    0.00300    1.000
    C88      C        0.50890    0.51320    0.06480    1.000
    H40      H        0.51270    0.52120    0.10910    1.000
    O32      O        0.82090    0.07380    0.76090    1.000
