# CIF file generated by openbabel 3.1.0, see https://openbabel.org
data_I
_chemical_name_common 'image0'
_cell_length_a 9.3078
_cell_length_b 9.9938
_cell_length_c 13.2647
_cell_angle_alpha 78.154
_cell_angle_beta 73.742
_cell_angle_gamma 82.751
_space_group_name_H-M_alt 'P 1'
_space_group_name_Hall 'P 1'
loop_
    _symmetry_equiv_pos_as_xyz
    x,y,z
loop_
    _atom_site_label
    _atom_site_type_symbol
    _atom_site_fract_x
    _atom_site_fract_y
    _atom_site_fract_z
    _atom_site_occupancy
    C1       C        0.17730    0.30580    0.65140    1.000
    H1       H        0.26590    0.30530    0.59720    1.000
    C2       C        0.16640    0.26160    0.75640    1.000
    H2       H        0.24470    0.22710    0.78740    1.000
    C3       C        0.94600    0.33060    0.73300    1.000
    H3       H        0.84270    0.35010    0.74760    1.000
    C4       C        0.95530    0.25950    0.92440    1.000
    H4       H        0.00410    0.17860    0.95890    1.000
    H5       H        0.84910    0.24620    0.94150    1.000
    C5       C        0.97670    0.38300    0.96510    1.000
    C6       C        0.88750    0.50350    0.95130    1.000
    H6       H        0.81050    0.50660    0.91860    1.000
    C7       C        0.09010    0.38190    0.01520    1.000
    H7       H        0.15140    0.30220    0.02600    1.000
    C8       C        0.35890    0.51240    0.41610    1.000
    H8       H        0.36010    0.57200    0.46130    1.000
    C9       C        0.48110    0.46510    0.34520    1.000
    H9       H        0.57990    0.48520    0.33370    1.000
    C10      C        0.28270    0.38060    0.33620    1.000
    H10      H        0.22160    0.33040    0.31550    1.000
    C11      C        0.51810    0.32340    0.20100    1.000
    H11      H        0.48080    0.23570    0.20440    1.000
    H12      H        0.62250    0.30730    0.20240    1.000
    C12      C        0.50670    0.41720    0.09750    1.000
    C13      C        0.49640    0.55930    0.08540    1.000
    H13      H        0.49310    0.59990    0.14320    1.000
    C14      C        0.50890    0.35890    0.01150    1.000
    H14      H        0.51400    0.26410    0.01860    1.000
    C15      C        0.08110    0.64720    0.66680    1.000
    H15      H        0.06340    0.57190    0.72180    1.000
    C16      C        0.11870    0.76910    0.67550    1.000
    H16      H        0.13160    0.79360    0.73610    1.000
    C17      C        0.10660    0.77450    0.51340    1.000
    H17      H        0.11080    0.80590    0.44170    1.000
    C18      C        0.17890    0.99210    0.54530    1.000
    H18      H        0.12940    0.04290    0.60200    1.000
    H19      H        0.14660    0.03580    0.48210    1.000
    C19      C        0.34540    0.99700    0.52240    1.000
    C20      C        0.41180    0.99910    0.60250    1.000
    H20      H        0.35300    0.99820    0.67200    1.000
    C21      C        0.43430    0.99750    0.42000    1.000
    H21      H        0.39040    0.99550    0.36550    1.000
    N1       N        0.03780    0.35170    0.63670    1.000
    N2       N        0.01930    0.27750    0.80780    1.000
    N3       N        0.23360    0.45840    0.41040    1.000
    N4       N        0.43130    0.38310    0.29470    1.000
    N5       N        0.07280    0.65010    0.56480    1.000
    N6       N        0.13380    0.84940    0.57720    1.000
    C22      C        0.82270    0.69420    0.34860    1.000
    H22      H        0.73410    0.69470    0.40280    1.000
    C23      C        0.83360    0.73840    0.24360    1.000
    H23      H        0.75530    0.77290    0.21260    1.000
    C24      C        0.05400    0.66940    0.26700    1.000
    H24      H        0.15730    0.64990    0.25240    1.000
    C25      C        0.04470    0.74050    0.07560    1.000
    H25      H        0.99590    0.82140    0.04110    1.000
    H26      H        0.15090    0.75380    0.05850    1.000
    C26      C        0.02330    0.61700    0.03490    1.000
    C27      C        0.11250    0.49650    0.04870    1.000
    H27      H        0.18950    0.49340    0.08140    1.000
    C28      C        0.90990    0.61810    0.98480    1.000
    H28      H        0.84860    0.69780    0.97400    1.000
    C29      C        0.64110    0.48760    0.58390    1.000
    H29      H        0.63990    0.42800    0.53870    1.000
    C30      C        0.51890    0.53490    0.65480    1.000
    H30      H        0.42010    0.51480    0.66630    1.000
    C31      C        0.71730    0.61940    0.66380    1.000
    H31      H        0.77840    0.66960    0.68450    1.000
    C32      C        0.48190    0.67660    0.79900    1.000
    H32      H        0.51920    0.76430    0.79560    1.000
    H33      H        0.37750    0.69270    0.79760    1.000
    C33      C        0.49330    0.58280    0.90250    1.000
    C34      C        0.50360    0.44070    0.91460    1.000
    H34      H        0.50690    0.40010    0.85680    1.000
    C35      C        0.49110    0.64110    0.98850    1.000
    H35      H        0.48600    0.73590    0.98140    1.000
    C36      C        0.91890    0.35280    0.33320    1.000
    H36      H        0.93660    0.42810    0.27820    1.000
    C37      C        0.88130    0.23090    0.32450    1.000
    H37      H        0.86840    0.20640    0.26390    1.000
    C38      C        0.89340    0.22550    0.48660    1.000
    H38      H        0.88920    0.19410    0.55830    1.000
    C39      C        0.82110    0.00790    0.45470    1.000
    H39      H        0.87060    0.95710    0.39800    1.000
    H40      H        0.85340    0.96420    0.51790    1.000
    C40      C        0.65460    0.00300    0.47760    1.000
    C41      C        0.58820    0.00090    0.39750    1.000
    H41      H        0.64700    0.00180    0.32800    1.000
    C42      C        0.56570    0.00250    0.58000    1.000
    H42      H        0.60960    0.00450    0.63450    1.000
    N7       N        0.96220    0.64830    0.36330    1.000
    N8       N        0.98070    0.72250    0.19220    1.000
    N9       N        0.76640    0.54160    0.58960    1.000
    N10      N        0.56870    0.61690    0.70530    1.000
    N11      N        0.92720    0.34990    0.43520    1.000
    N12      N        0.86620    0.15060    0.42280    1.000
    Co1      Co       0.00000    0.50000    0.50000    1.000
