# CIF file generated by openbabel 3.1.0, see https://openbabel.org
data_I
_chemical_name_common 'image0'
_cell_length_a 9.2994
_cell_length_b 9.751
_cell_length_c 14.3348
_cell_angle_alpha 90
_cell_angle_beta 90.974
_cell_angle_gamma 90
_space_group_name_H-M_alt 'P 1'
_space_group_name_Hall 'P 1'
loop_
    _symmetry_equiv_pos_as_xyz
    x,y,z
loop_
    _atom_site_label
    _atom_site_type_symbol
    _atom_site_fract_x
    _atom_site_fract_y
    _atom_site_fract_z
    _atom_site_occupancy
    Zn1      Zn       0.53230    0.88530    0.26730    1.000
    Zn2      Zn       0.22840    0.37690    0.37550    1.000
    Zn3      Zn       0.75630    0.90400    0.87000    1.000
    Zn4      Zn       0.92940    0.11350    0.24560    1.000
    Zn5      Zn       0.92300    0.73960    0.22700    1.000
    P1       P        0.79540    0.92620    0.39350    1.000
    P2       P        0.75620    0.91650    0.09860    1.000
    P3       P        0.95560    0.42890    0.23780    1.000
    P4       P        0.26460    0.12200    0.24230    1.000
    P5       P        0.44440    0.56280    0.27250    1.000
    O1       O        0.62820    0.86060    0.15060    1.000
    O2       O        0.63890    0.96990    0.37090    1.000
    O3       O        0.47550    0.70450    0.30870    1.000
    O4       O        0.36450    0.00120    0.24830    1.000
    O5       O        0.24160    0.18570    0.33780    1.000
    O6       O        0.41230    0.46290    0.35180    1.000
    O7       O        0.81660    0.88830    0.49550    1.000
    O8       O        0.05820    0.46080    0.31930    1.000
    O9       O        0.03770    0.40740    0.14670    1.000
    O10      O        0.71370    0.94010    0.99740    1.000
    O11      O        0.32420    0.56180    0.19940    1.000
    O12      O        0.32380    0.22920    0.17400    1.000
    O13      O        0.89900    0.04430    0.37000    1.000
    O14      O        0.86310    0.30250    0.25790    1.000
    O15      O        0.11960    0.06990    0.20300    1.000
    O16      O        0.80600    0.05400    0.14250    1.000
    O17      O        0.83130    0.79870    0.33630    1.000
    O18      O        0.88220    0.81350    0.10430    1.000
    O19      O        0.85290    0.55110    0.22500    1.000
    O20      O        0.58200    0.50240    0.22190    1.000
    H1       H        0.56360    0.42320    0.20190    1.000
    Zn6      Zn       0.46770    0.38530    0.73270    1.000
    Zn7      Zn       0.77160    0.87690    0.62450    1.000
    Zn8      Zn       0.24370    0.40400    0.13000    1.000
    Zn9      Zn       0.07060    0.61350    0.75440    1.000
    Zn10     Zn       0.07700    0.23960    0.77300    1.000
    P6       P        0.20460    0.42620    0.60650    1.000
    P7       P        0.24380    0.41650    0.90140    1.000
    P8       P        0.04440    0.92890    0.76220    1.000
    P9       P        0.73540    0.62200    0.75770    1.000
    P10      P        0.55560    0.06280    0.72750    1.000
    O21      O        0.37180    0.36060    0.84940    1.000
    O22      O        0.36110    0.46990    0.62910    1.000
    O23      O        0.52450    0.20450    0.69130    1.000
    O24      O        0.63550    0.50120    0.75170    1.000
    O25      O        0.75840    0.68570    0.66220    1.000
    O26      O        0.58770    0.96290    0.64820    1.000
    O27      O        0.18340    0.38830    0.50450    1.000
    O28      O        0.94180    0.96080    0.68070    1.000
    O29      O        0.96230    0.90740    0.85330    1.000
    O30      O        0.28630    0.44010    0.00260    1.000
    O31      O        0.67580    0.06180    0.80060    1.000
    O32      O        0.67620    0.72920    0.82600    1.000
    O33      O        0.10100    0.54430    0.63000    1.000
    O34      O        0.13690    0.80250    0.74210    1.000
    O35      O        0.88040    0.56990    0.79700    1.000
    O36      O        0.19400    0.55400    0.85750    1.000
    O37      O        0.16870    0.29870    0.66370    1.000
    O38      O        0.11780    0.31350    0.89570    1.000
    O39      O        0.14710    0.05110    0.77500    1.000
    O40      O        0.41800    0.00240    0.77810    1.000
    H2       H        0.43640    0.92320    0.79810    1.000
