# CIF file generated by openbabel 3.1.0, see https://openbabel.org
data_I
_chemical_name_common 'image0'
_cell_length_a 10.292
_cell_length_b 10.292
_cell_length_c 9.629
_cell_angle_alpha 90
_cell_angle_beta 90
_cell_angle_gamma 90
_space_group_name_H-M_alt 'P 1'
_space_group_name_Hall 'P 1'
loop_
    _symmetry_equiv_pos_as_xyz
    x,y,z
loop_
    _atom_site_label
    _atom_site_type_symbol
    _atom_site_fract_x
    _atom_site_fract_y
    _atom_site_fract_z
    _atom_site_occupancy
    O1       O        0.52350    0.69510    0.72290    1.000
    O2       O        0.02350    0.19510    0.22290    1.000
    O3       O        0.47650    0.30490    0.72290    1.000
    O4       O        0.97650    0.80490    0.22290    1.000
    O5       O        0.69510    0.47650    0.27710    1.000
    O6       O        0.19510    0.97650    0.77710    1.000
    O7       O        0.30490    0.52350    0.27710    1.000
    O8       O        0.80490    0.02350    0.77710    1.000
    O9       O        0.47650    0.69510    0.27710    1.000
    O10      O        0.97650    0.19510    0.77710    1.000
    O11      O        0.52350    0.30490    0.27710    1.000
    O12      O        0.02350    0.80490    0.77710    1.000
    O13      O        0.30490    0.47650    0.72290    1.000
    O14      O        0.80490    0.97650    0.22290    1.000
    O15      O        0.69510    0.52350    0.72290    1.000
    O16      O        0.19510    0.02350    0.22290    1.000
    Fe1      Fe       0.63442    0.63442    0.36520    1.000
    P1       P        0.66310    0.66310    0.69150    1.000
    O17      O        0.70260    0.70260    0.54590    1.000
    O18      O        0.73820    0.73820    0.79500    1.000
    Fe2      Fe       0.13442    0.13442    0.86520    1.000
    P2       P        0.16310    0.16310    0.19150    1.000
    O19      O        0.20260    0.20260    0.04590    1.000
    O20      O        0.23820    0.23820    0.29500    1.000
    Fe3      Fe       0.36558    0.36558    0.36520    1.000
    P3       P        0.33690    0.33690    0.69150    1.000
    O21      O        0.29740    0.29740    0.54590    1.000
    O22      O        0.26180    0.26180    0.79500    1.000
    Fe4      Fe       0.86558    0.86558    0.86520    1.000
    P4       P        0.83690    0.83690    0.19150    1.000
    O23      O        0.79740    0.79740    0.04590    1.000
    O24      O        0.76180    0.76180    0.29500    1.000
    Fe5      Fe       0.63442    0.36558    0.63480    1.000
    P5       P        0.66310    0.33690    0.30850    1.000
    O25      O        0.70260    0.29740    0.45410    1.000
    O26      O        0.73820    0.26180    0.20500    1.000
    Fe6      Fe       0.13442    0.86558    0.13480    1.000
    P6       P        0.16310    0.83690    0.80850    1.000
    O27      O        0.20260    0.79740    0.95410    1.000
    O28      O        0.23820    0.76180    0.70500    1.000
    Fe7      Fe       0.36558    0.63442    0.63480    1.000
    P7       P        0.33690    0.66310    0.30850    1.000
    O29      O        0.29740    0.70260    0.45410    1.000
    O30      O        0.26180    0.73820    0.20500    1.000
    Fe8      Fe       0.86558    0.13442    0.13480    1.000
    P8       P        0.83690    0.16310    0.80850    1.000
    O31      O        0.79740    0.20260    0.95410    1.000
    O32      O        0.76180    0.23820    0.70500    1.000
