# CIF file generated by openbabel 3.1.0, see https://openbabel.org
data_I
_chemical_name_common 'image0'
_cell_length_a 13.0737
_cell_length_b 20.2192
_cell_length_c 19.6196
_cell_angle_alpha 90
_cell_angle_beta 115.529
_cell_angle_gamma 90
_space_group_name_H-M_alt 'P 1'
_space_group_name_Hall 'P 1'
loop_
    _symmetry_equiv_pos_as_xyz
    x,y,z
loop_
    _atom_site_label
    _atom_site_type_symbol
    _atom_site_fract_x
    _atom_site_fract_y
    _atom_site_fract_z
    _atom_site_occupancy
    Zn1      Zn       0.14444    0.62658    0.82507    1.000
    Zn2      Zn       0.89755    0.46495    0.75113    1.000
    V1       V        0.16455    0.55212    0.99149    1.000
    V2       V        0.03656    0.41448    0.95075    1.000
    V3       V        0.78478    0.52927    0.55939    1.000
    V4       V        0.02341    0.61231    0.63993    1.000
    V5       V        0.17942    0.58792    0.54875    1.000
    C1       C        0.75380    0.79170    0.85220    1.000
    C2       C        0.68930    0.73390    0.83490    1.000
    C3       C        0.57390    0.73580    0.78530    1.000
    C4       C        0.52230    0.79610    0.75570    1.000
    C5       C        0.58660    0.85390    0.77400    1.000
    C6       C        0.70300    0.85160    0.82210    1.000
    C7       C        0.87890    0.78860    0.90240    1.000
    H1       H        0.90690    0.83280    0.91980    1.000
    H2       H        0.89200    0.76170    0.94640    1.000
    C8       C        0.99660    0.74980    0.77790    1.000
    H3       H        0.00630    0.75540    0.73400    1.000
    C9       C        0.01360    0.71170    0.88320    1.000
    H4       H        0.03530    0.68710    0.92720    1.000
    C10      C        0.74280    0.66860    0.86990    1.000
    H5       H        0.80970    0.67680    0.91660    1.000
    H6       H        0.68970    0.64340    0.88200    1.000
    C11      C        0.80970    0.60850    0.72740    1.000
    H7       H        0.81650    0.61210    0.68230    1.000
    C12      C        0.81660    0.56960    0.82800    1.000
    H8       H        0.82840    0.54220    0.86880    1.000
    C13      C        0.50760    0.67190    0.76300    1.000
    H9       H        0.46130    0.67150    0.70890    1.000
    H10      H        0.55980    0.63490    0.77560    1.000
    C14      C        0.39020    0.65900    0.89090    1.000
    H11      H        0.39340    0.66020    0.93920    1.000
    C15      C        0.32710    0.64890    0.77370    1.000
    H12      H        0.28020    0.64180    0.72280    1.000
    C16      C        0.39680    0.79850    0.70350    1.000
    H13      H        0.38530    0.82290    0.65820    1.000
    H14      H        0.36890    0.75390    0.68860    1.000
    C17      C        0.27040    0.84890    0.81870    1.000
    H15      H        0.25910    0.84770    0.86240    1.000
    C18      C        0.25810    0.87780    0.71290    1.000
    H16      H        0.23790    0.89870    0.66670    1.000
    C19      C        0.53130    0.91910    0.74050    1.000
    H17      H        0.58170    0.94460    0.72610    1.000
    H18      H        0.46190    0.91100    0.69540    1.000
    C20      C        0.51950    0.94140    0.86370    1.000
    H19      H        0.54830    0.90150    0.88790    1.000
    C21      C        0.45240    0.03630    0.83820    1.000
    H20      H        0.42460    0.07740    0.84310    1.000
    C22      C        0.77040    0.91580    0.84120    1.000
    H21      H        0.71950    0.95260    0.83480    1.000
    H22      H        0.82570    0.91480    0.89360    1.000
    C23      C        0.84890    0.93960    0.69420    1.000
    H23      H        0.83400    0.94390    0.64360    1.000
    C24      C        0.93770    0.93220    0.81190    1.000
    H24      H        0.99450    0.93040    0.86100    1.000
    N1       N        0.94080    0.76063    0.86260    1.000
    N2       N        0.92840    0.78650    0.79540    1.000
    N3       N        0.05160    0.70280    0.83060    1.000
    N4       N        0.77440    0.63005    0.81870    1.000
    N5       N        0.77030    0.65601    0.75420    1.000
    N6       N        0.83960    0.55374    0.77060    1.000
    N7       N        0.43530    0.66425    0.80160    1.000
    N8       N        0.47770    0.67070    0.87700    1.000
    N9       N        0.29500    0.64510    0.82860    1.000
    N10      N        0.33230    0.82993    0.73960    1.000
    N11      N        0.34010    0.80930    0.80710    1.000
    N12      N        0.21620    0.89178    0.76190    1.000
    N13      N        0.50550    0.95670    0.79460    1.000
    N14      N        0.46110    0.01820    0.77660    1.000
    N15      N        0.48650    0.99114    0.89320    1.000
    N16      N        0.82890    0.92595    0.79290    1.000
    N17      N        0.76980    0.93120    0.71710    1.000
    N18      N        0.95430    0.94162    0.75090    1.000
    O1       O        0.16690    0.57331    0.91100    1.000
    O2       O        0.04190    0.58775    0.99430    1.000
    O3       O        0.15980    0.46420    0.00060    1.000
    O4       O        0.96300    0.44850    0.86873    1.000
    O5       O        0.83140    0.48220    0.63437    1.000
    O6       O        0.65610    0.55297    0.54060    1.000
    O7       O        0.87530    0.60067    0.57980    1.000
    O8       O        0.05410    0.58798    0.72780    1.000
    O9       O        0.11040    0.56820    0.60850    1.000
    O10      O        0.21840    0.51170    0.51990    1.000
    Zn3      Zn       0.85556    0.12658    0.67493    1.000
    Zn4      Zn       0.10245    0.96495    0.74887    1.000
    V6       V        0.83545    0.05212    0.50851    1.000
    V7       V        0.96344    0.91448    0.54925    1.000
    V8       V        0.21522    0.02927    0.94061    1.000
    V9       V        0.97659    0.11231    0.86007    1.000
    V10      V        0.82058    0.08792    0.95125    1.000
    C25      C        0.24620    0.29170    0.64780    1.000
    C26      C        0.31070    0.23390    0.66510    1.000
    C27      C        0.42610    0.23580    0.71470    1.000
    C28      C        0.47770    0.29610    0.74430    1.000
    C29      C        0.41340    0.35390    0.72600    1.000
    C30      C        0.29700    0.35160    0.67790    1.000
    C31      C        0.12110    0.28860    0.59760    1.000
    H25      H        0.09310    0.33280    0.58020    1.000
    H26      H        0.10800    0.26170    0.55360    1.000
    C32      C        0.00340    0.24980    0.72210    1.000
    H27      H        0.99370    0.25540    0.76600    1.000
    C33      C        0.98640    0.21170    0.61680    1.000
    H28      H        0.96470    0.18710    0.57280    1.000
    C34      C        0.25720    0.16860    0.63010    1.000
    H29      H        0.19030    0.17680    0.58340    1.000
    H30      H        0.31030    0.14340    0.61800    1.000
    C35      C        0.19030    0.10850    0.77260    1.000
    H31      H        0.18350    0.11210    0.81770    1.000
    C36      C        0.18340    0.06960    0.67200    1.000
    H32      H        0.17160    0.04220    0.63120    1.000
    C37      C        0.49240    0.17190    0.73700    1.000
    H33      H        0.53870    0.17150    0.79110    1.000
    H34      H        0.44020    0.13490    0.72440    1.000
    C38      C        0.60980    0.15900    0.60910    1.000
    H35      H        0.60660    0.16020    0.56080    1.000
    C39      C        0.67290    0.14890    0.72630    1.000
    H36      H        0.71980    0.14180    0.77720    1.000
    C40      C        0.60320    0.29850    0.79650    1.000
    H37      H        0.61470    0.32290    0.84180    1.000
    H38      H        0.63110    0.25390    0.81140    1.000
    C41      C        0.72960    0.34890    0.68130    1.000
    H39      H        0.74090    0.34770    0.63760    1.000
    C42      C        0.74190    0.37780    0.78710    1.000
    H40      H        0.76210    0.39870    0.83330    1.000
    C43      C        0.46870    0.41910    0.75950    1.000
    H41      H        0.41830    0.44460    0.77390    1.000
    H42      H        0.53810    0.41100    0.80460    1.000
    C44      C        0.48050    0.44140    0.63630    1.000
    H43      H        0.45170    0.40150    0.61210    1.000
    C45      C        0.54760    0.53630    0.66180    1.000
    H44      H        0.57540    0.57740    0.65690    1.000
    C46      C        0.22960    0.41580    0.65880    1.000
    H45      H        0.28050    0.45260    0.66520    1.000
    H46      H        0.17430    0.41480    0.60640    1.000
    C47      C        0.15110    0.43960    0.80580    1.000
    H47      H        0.16600    0.44390    0.85640    1.000
    C48      C        0.06230    0.43220    0.68810    1.000
    H48      H        0.00550    0.43040    0.63900    1.000
    N19      N        0.05920    0.26063    0.63740    1.000
    N20      N        0.07160    0.28650    0.70460    1.000
    N21      N        0.94840    0.20280    0.66940    1.000
    N22      N        0.22560    0.13005    0.68130    1.000
    N23      N        0.22970    0.15601    0.74580    1.000
    N24      N        0.16040    0.05374    0.72940    1.000
    N25      N        0.56470    0.16425    0.69840    1.000
    N26      N        0.52230    0.17070    0.62300    1.000
    N27      N        0.70500    0.14510    0.67140    1.000
    N28      N        0.66770    0.32993    0.76040    1.000
    N29      N        0.65990    0.30930    0.69290    1.000
    N30      N        0.78380    0.39178    0.73810    1.000
    N31      N        0.49450    0.45670    0.70540    1.000
    N32      N        0.53890    0.51820    0.72340    1.000
    N33      N        0.51350    0.49114    0.60680    1.000
    N34      N        0.17110    0.42595    0.70710    1.000
    N35      N        0.23020    0.43120    0.78290    1.000
    N36      N        0.04570    0.44162    0.74910    1.000
    O11      O        0.83310    0.07331    0.58900    1.000
    O12      O        0.95810    0.08775    0.50570    1.000
    O13      O        0.84020    0.96420    0.49940    1.000
    O14      O        0.03700    0.94850    0.63127    1.000
    O15      O        0.16860    0.98220    0.86563    1.000
    O16      O        0.34390    0.05297    0.95940    1.000
    O17      O        0.12470    0.10067    0.92020    1.000
    O18      O        0.94590    0.08798    0.77220    1.000
    O19      O        0.88960    0.06820    0.89150    1.000
    O20      O        0.78160    0.01170    0.98010    1.000
    Zn5      Zn       0.85556    0.37342    0.17493    1.000
    Zn6      Zn       0.10245    0.53505    0.24887    1.000
    V11      V        0.83545    0.44788    0.00851    1.000
    V12      V        0.96344    0.58552    0.04925    1.000
    V13      V        0.21522    0.47073    0.44061    1.000
    V14      V        0.97659    0.38769    0.36007    1.000
    V15      V        0.82058    0.41208    0.45125    1.000
    C49      C        0.24620    0.20830    0.14780    1.000
    C50      C        0.31070    0.26610    0.16510    1.000
    C51      C        0.42610    0.26420    0.21470    1.000
    C52      C        0.47770    0.20390    0.24430    1.000
    C53      C        0.41340    0.14610    0.22600    1.000
    C54      C        0.29700    0.14840    0.17790    1.000
    C55      C        0.12110    0.21140    0.09760    1.000
    H49      H        0.09310    0.16720    0.08020    1.000
    H50      H        0.10800    0.23830    0.05360    1.000
    C56      C        0.00340    0.25020    0.22210    1.000
    H51      H        0.99370    0.24460    0.26600    1.000
    C57      C        0.98640    0.28830    0.11680    1.000
    H52      H        0.96470    0.31290    0.07280    1.000
    C58      C        0.25720    0.33140    0.13010    1.000
    H53      H        0.19030    0.32320    0.08340    1.000
    H54      H        0.31030    0.35660    0.11800    1.000
    C59      C        0.19030    0.39150    0.27260    1.000
    H55      H        0.18350    0.38790    0.31770    1.000
    C60      C        0.18340    0.43040    0.17200    1.000
    H56      H        0.17160    0.45780    0.13120    1.000
    C61      C        0.49240    0.32810    0.23700    1.000
    H57      H        0.53870    0.32850    0.29110    1.000
    H58      H        0.44020    0.36510    0.22440    1.000
    C62      C        0.60980    0.34100    0.10910    1.000
    H59      H        0.60660    0.33980    0.06080    1.000
    C63      C        0.67290    0.35110    0.22630    1.000
    H60      H        0.71980    0.35820    0.27720    1.000
    C64      C        0.60320    0.20150    0.29650    1.000
    H61      H        0.61470    0.17710    0.34180    1.000
    H62      H        0.63110    0.24610    0.31140    1.000
    C65      C        0.72960    0.15110    0.18130    1.000
    H63      H        0.74090    0.15230    0.13760    1.000
    C66      C        0.74190    0.12220    0.28710    1.000
    H64      H        0.76210    0.10130    0.33330    1.000
    C67      C        0.46870    0.08090    0.25950    1.000
    H65      H        0.41830    0.05540    0.27390    1.000
    H66      H        0.53810    0.08900    0.30460    1.000
    C68      C        0.48050    0.05860    0.13630    1.000
    H67      H        0.45170    0.09850    0.11210    1.000
    C69      C        0.54760    0.96370    0.16180    1.000
    H68      H        0.57540    0.92260    0.15690    1.000
    C70      C        0.22960    0.08420    0.15880    1.000
    H69      H        0.28050    0.04740    0.16520    1.000
    H70      H        0.17430    0.08520    0.10640    1.000
    C71      C        0.15110    0.06040    0.30580    1.000
    H71      H        0.16600    0.05610    0.35640    1.000
    C72      C        0.06230    0.06780    0.18810    1.000
    H72      H        0.00550    0.06960    0.13900    1.000
    N37      N        0.05920    0.23937    0.13740    1.000
    N38      N        0.07160    0.21350    0.20460    1.000
    N39      N        0.94840    0.29720    0.16940    1.000
    N40      N        0.22560    0.36995    0.18130    1.000
    N41      N        0.22970    0.34399    0.24580    1.000
    N42      N        0.16040    0.44626    0.22940    1.000
    N43      N        0.56470    0.33575    0.19840    1.000
    N44      N        0.52230    0.32930    0.12300    1.000
    N45      N        0.70500    0.35490    0.17140    1.000
    N46      N        0.66770    0.17007    0.26040    1.000
    N47      N        0.65990    0.19070    0.19290    1.000
    N48      N        0.78380    0.10822    0.23810    1.000
    N49      N        0.49450    0.04330    0.20540    1.000
    N50      N        0.53890    0.98180    0.22340    1.000
    N51      N        0.51350    0.00886    0.10680    1.000
    N52      N        0.17110    0.07405    0.20710    1.000
    N53      N        0.23020    0.06880    0.28290    1.000
    N54      N        0.04570    0.05838    0.24910    1.000
    O21      O        0.83310    0.42669    0.08900    1.000
    O22      O        0.95810    0.41225    0.00570    1.000
    O23      O        0.84020    0.53580    0.99940    1.000
    O24      O        0.03700    0.55150    0.13127    1.000
    O25      O        0.16860    0.51780    0.36563    1.000
    O26      O        0.34390    0.44703    0.45940    1.000
    O27      O        0.12470    0.39933    0.42020    1.000
    O28      O        0.94590    0.41202    0.27220    1.000
    O29      O        0.88960    0.43180    0.39150    1.000
    O30      O        0.78160    0.48830    0.48010    1.000
    Zn7      Zn       0.14444    0.87342    0.32507    1.000
    Zn8      Zn       0.89755    0.03505    0.25113    1.000
    V16      V        0.16455    0.94788    0.49149    1.000
    V17      V        0.03656    0.08552    0.45075    1.000
    V18      V        0.78478    0.97073    0.05939    1.000
    V19      V        0.02341    0.88769    0.13993    1.000
    V20      V        0.17942    0.91208    0.04875    1.000
    C73      C        0.75380    0.70830    0.35220    1.000
    C74      C        0.68930    0.76610    0.33490    1.000
    C75      C        0.57390    0.76420    0.28530    1.000
    C76      C        0.52230    0.70390    0.25570    1.000
    C77      C        0.58660    0.64610    0.27400    1.000
    C78      C        0.70300    0.64840    0.32210    1.000
    C79      C        0.87890    0.71140    0.40240    1.000
    H73      H        0.90690    0.66720    0.41980    1.000
    H74      H        0.89200    0.73830    0.44640    1.000
    C80      C        0.99660    0.75020    0.27790    1.000
    H75      H        0.00630    0.74460    0.23400    1.000
    C81      C        0.01360    0.78830    0.38320    1.000
    H76      H        0.03530    0.81290    0.42720    1.000
    C82      C        0.74280    0.83140    0.36990    1.000
    H77      H        0.80970    0.82320    0.41660    1.000
    H78      H        0.68970    0.85660    0.38200    1.000
    C83      C        0.80970    0.89150    0.22740    1.000
    H79      H        0.81650    0.88790    0.18230    1.000
    C84      C        0.81660    0.93040    0.32800    1.000
    H80      H        0.82840    0.95780    0.36880    1.000
    C85      C        0.50760    0.82810    0.26300    1.000
    H81      H        0.46130    0.82850    0.20890    1.000
    H82      H        0.55980    0.86510    0.27560    1.000
    C86      C        0.39020    0.84100    0.39090    1.000
    H83      H        0.39340    0.83980    0.43920    1.000
    C87      C        0.32710    0.85110    0.27370    1.000
    H84      H        0.28020    0.85820    0.22280    1.000
    C88      C        0.39680    0.70150    0.20350    1.000
    H85      H        0.38530    0.67710    0.15820    1.000
    H86      H        0.36890    0.74610    0.18860    1.000
    C89      C        0.27040    0.65110    0.31870    1.000
    H87      H        0.25910    0.65230    0.36240    1.000
    C90      C        0.25810    0.62220    0.21290    1.000
    H88      H        0.23790    0.60130    0.16670    1.000
    C91      C        0.53130    0.58090    0.24050    1.000
    H89      H        0.58170    0.55540    0.22610    1.000
    H90      H        0.46190    0.58900    0.19540    1.000
    C92      C        0.51950    0.55860    0.36370    1.000
    H91      H        0.54830    0.59850    0.38790    1.000
    C93      C        0.45240    0.46370    0.33820    1.000
    H92      H        0.42460    0.42260    0.34310    1.000
    C94      C        0.77040    0.58420    0.34120    1.000
    H93      H        0.71950    0.54740    0.33480    1.000
    H94      H        0.82570    0.58520    0.39360    1.000
    C95      C        0.84890    0.56040    0.19420    1.000
    H95      H        0.83400    0.55610    0.14360    1.000
    C96      C        0.93770    0.56780    0.31190    1.000
    H96      H        0.99450    0.56960    0.36100    1.000
    N55      N        0.94080    0.73937    0.36260    1.000
    N56      N        0.92840    0.71350    0.29540    1.000
    N57      N        0.05160    0.79720    0.33060    1.000
    N58      N        0.77440    0.86995    0.31870    1.000
    N59      N        0.77030    0.84399    0.25420    1.000
    N60      N        0.83960    0.94626    0.27060    1.000
    N61      N        0.43530    0.83575    0.30160    1.000
    N62      N        0.47770    0.82930    0.37700    1.000
    N63      N        0.29500    0.85490    0.32860    1.000
    N64      N        0.33230    0.67007    0.23960    1.000
    N65      N        0.34010    0.69070    0.30710    1.000
    N66      N        0.21620    0.60822    0.26190    1.000
    N67      N        0.50550    0.54330    0.29460    1.000
    N68      N        0.46110    0.48180    0.27660    1.000
    N69      N        0.48650    0.50886    0.39320    1.000
    N70      N        0.82890    0.57405    0.29290    1.000
    N71      N        0.76980    0.56880    0.21710    1.000
    N72      N        0.95430    0.55838    0.25090    1.000
    O31      O        0.16690    0.92669    0.41100    1.000
    O32      O        0.04190    0.91225    0.49430    1.000
    O33      O        0.15980    0.03580    0.50060    1.000
    O34      O        0.96300    0.05150    0.36873    1.000
    O35      O        0.83140    0.01780    0.13437    1.000
    O36      O        0.65610    0.94703    0.04060    1.000
    O37      O        0.87530    0.89933    0.07980    1.000
    O38      O        0.05410    0.91202    0.22780    1.000
    O39      O        0.11040    0.93180    0.10850    1.000
    O40      O        0.21840    0.98830    0.01990    1.000
    Zn9      Zn       0.50000    0.50000    0.50000    1.000
    Zn10     Zn       0.50000    0.00000    0.00000    1.000
