# CIF file generated by openbabel 3.1.0, see https://openbabel.org
data_I
_chemical_name_common 'image0'
_cell_length_a 12.643
_cell_length_b 13.944
_cell_length_c 15.443
_cell_angle_alpha 59.647
_cell_angle_beta 83.262
_cell_angle_gamma 86.876
_space_group_name_H-M_alt 'P 1'
_space_group_name_Hall 'P 1'
loop_
    _symmetry_equiv_pos_as_xyz
    x,y,z
loop_
    _atom_site_label
    _atom_site_type_symbol
    _atom_site_fract_x
    _atom_site_fract_y
    _atom_site_fract_z
    _atom_site_occupancy
    La1      La       0.06831    0.09328    0.25108    1.000
    La2      La       0.06766    0.84634    0.53337    1.000
    Cu1      Cu       0.45225    0.58724    0.22545    1.000
    O1       O        0.19100    0.95580    0.21150    1.000
    O2       O        0.18820    0.91850    0.36800    1.000
    O3       O        0.85990    0.32200    0.48630    1.000
    O4       O        0.83580    0.32950    0.34450    1.000
    O5       O        0.80560    0.78330    0.91150    1.000
    O6       O        0.73120    0.84990    0.76990    1.000
    O7       O        0.08000    0.30140    0.37890    1.000
    O8       O        0.05880    0.27160    0.25410    1.000
    O9       O        0.08210    0.05700    0.42540    1.000
    O10      O        0.96660    0.89660    0.38890    1.000
    O11      O        0.94350    0.96730    0.22960    1.000
    O12      O        0.25130    0.89930    0.56580    1.000
    O13      O        0.11460    0.88110    0.67470    1.000
    N1       N        0.41050    0.68220    0.29100    1.000
    N2       N        0.56470    0.53320    0.32490    1.000
    N3       N        0.50140    0.65250    0.07480    1.000
    N4       N        0.34660    0.50780    0.19260    1.000
    C1       C        0.32770    0.75210    0.27180    1.000
    C2       C        0.31120    0.81760    0.31710    1.000
    C3       C        0.37950    0.80460    0.38570    1.000
    C4       C        0.46430    0.73270    0.40520    1.000
    C5       C        0.47870    0.67300    0.35500    1.000
    C6       C        0.56770    0.59450    0.37010    1.000
    C7       C        0.65010    0.58390    0.42680    1.000
    C8       C        0.72930    0.50710    0.43780    1.000
    C9       C        0.72670    0.44410    0.39150    1.000
    C10      C        0.64180    0.45800    0.33540    1.000
    C11      C        0.25300    0.74840    0.20620    1.000
    C12      C        0.22440    0.90160    0.29660    1.000
    C13      C        0.62660    0.39250    0.28560    1.000
    C14      C        0.81340    0.36050    0.40830    1.000
    C15      C        0.59180    0.71110    0.02370    1.000
    C16      C        0.62260    0.73780    0.92320    1.000
    C17      C        0.55340    0.71050    0.87460    1.000
    C18      C        0.46080    0.65260    0.92610    1.000
    C19      C        0.43800    0.62260    0.02810    1.000
    C20      C        0.34560    0.55170    0.09170    1.000
    C21      C        0.26390    0.52760    0.05270    1.000
    C22      C        0.18530    0.45330    0.11900    1.000
    C23      C        0.18790    0.40400    0.22300    1.000
    C24      C        0.27080    0.43460    0.25800    1.000
    C25      C        0.65340    0.74340    0.08300    1.000
    C26      C        0.72590    0.79460    0.86510    1.000
    C27      C        0.28270    0.38820    0.36660    1.000
    C28      C        0.10350    0.32020    0.29090    1.000
    C29      C        0.84880    0.79990    0.35000    1.000
    C30      C        0.92440    0.89210    0.32030    1.000
    C31      C        0.21400    0.89500    0.64650    1.000
    C32      C        0.28530    0.90150    0.71450    1.000
    H1       H        0.36800    0.84560    0.41980    1.000
    H2       H        0.51190    0.72410    0.45190    1.000
    H3       H        0.65190    0.62830    0.45720    1.000
    H4       H        0.78560    0.49750    0.47710    1.000
    H5       H        0.27630    0.80160    0.13540    1.000
    H6       H        0.18120    0.76780    0.22390    1.000
    H7       H        0.25200    0.67340    0.21580    1.000
    H8       H        0.58510    0.32530    0.33310    1.000
    H9       H        0.69620    0.37160    0.26510    1.000
    H10      H        0.58850    0.43760    0.22610    1.000
    H11      H        0.57050    0.73210    0.80550    1.000
    H12      H        0.41350    0.63340    0.89380    1.000
    H13      H        0.26220    0.56140    0.98180    1.000
    H14      H        0.12910    0.43570    0.09360    1.000
    H15      H        0.62880    0.81580    0.07310    1.000
    H16      H        0.72940    0.74800    0.05960    1.000
    H17      H        0.64210    0.68730    0.15480    1.000
    H18      H        0.32550    0.32040    0.39100    1.000
    H19      H        0.21220    0.37050    0.40520    1.000
    H20      H        0.31820    0.44300    0.37540    1.000
    H21      H        0.88810    0.73650    0.35180    1.000
    H22      H        0.79650    0.82510    0.30090    1.000
    H23      H        0.81200    0.77750    0.41700    1.000
    H24      H        0.30740    0.82650    0.76330    1.000
    H25      H        0.24670    0.93590    0.75070    1.000
    H26      H        0.34840    0.94640    0.67410    1.000
    La3      La       0.93169    0.90672    0.74892    1.000
    La4      La       0.93234    0.15366    0.46663    1.000
    Cu2      Cu       0.54775    0.41276    0.77455    1.000
    O14      O        0.80900    0.04420    0.78850    1.000
    O15      O        0.81180    0.08150    0.63200    1.000
    O16      O        0.14010    0.67800    0.51370    1.000
    O17      O        0.16420    0.67050    0.65550    1.000
    O18      O        0.19440    0.21670    0.08850    1.000
    O19      O        0.26880    0.15010    0.23010    1.000
    O20      O        0.92000    0.69860    0.62110    1.000
    O21      O        0.94120    0.72840    0.74590    1.000
    O22      O        0.91790    0.94300    0.57460    1.000
    O23      O        0.03340    0.10340    0.61110    1.000
    O24      O        0.05650    0.03270    0.77040    1.000
    O25      O        0.74870    0.10070    0.43420    1.000
    O26      O        0.88540    0.11890    0.32530    1.000
    N5       N        0.58950    0.31780    0.70900    1.000
    N6       N        0.43530    0.46680    0.67510    1.000
    N7       N        0.49860    0.34750    0.92520    1.000
    N8       N        0.65340    0.49220    0.80740    1.000
    C33      C        0.67230    0.24790    0.72820    1.000
    C34      C        0.68880    0.18240    0.68290    1.000
    C35      C        0.62050    0.19540    0.61430    1.000
    C36      C        0.53570    0.26730    0.59480    1.000
    C37      C        0.52130    0.32700    0.64500    1.000
    C38      C        0.43230    0.40550    0.62990    1.000
    C39      C        0.34990    0.41610    0.57320    1.000
    C40      C        0.27070    0.49290    0.56220    1.000
    C41      C        0.27330    0.55590    0.60850    1.000
    C42      C        0.35820    0.54200    0.66460    1.000
    C43      C        0.74700    0.25160    0.79380    1.000
    C44      C        0.77560    0.09840    0.70340    1.000
    C45      C        0.37340    0.60750    0.71440    1.000
    C46      C        0.18660    0.63950    0.59170    1.000
    C47      C        0.40820    0.28890    0.97630    1.000
    C48      C        0.37740    0.26220    0.07680    1.000
    C49      C        0.44660    0.28950    0.12540    1.000
    C50      C        0.53920    0.34740    0.07390    1.000
    C51      C        0.56200    0.37740    0.97190    1.000
    C52      C        0.65440    0.44830    0.90830    1.000
    C53      C        0.73610    0.47240    0.94730    1.000
    C54      C        0.81470    0.54670    0.88100    1.000
    C55      C        0.81210    0.59600    0.77700    1.000
    C56      C        0.72920    0.56540    0.74200    1.000
    C57      C        0.34660    0.25660    0.91700    1.000
    C58      C        0.27410    0.20540    0.13490    1.000
    C59      C        0.71730    0.61180    0.63340    1.000
    C60      C        0.89650    0.67980    0.70910    1.000
    C61      C        0.15120    0.20010    0.65000    1.000
    C62      C        0.07560    0.10790    0.67970    1.000
    C63      C        0.78600    0.10500    0.35350    1.000
    C64      C        0.71470    0.09850    0.28550    1.000
    H27      H        0.63200    0.15440    0.58020    1.000
    H28      H        0.48810    0.27590    0.54810    1.000
    H29      H        0.34810    0.37170    0.54280    1.000
    H30      H        0.21440    0.50250    0.52290    1.000
    H31      H        0.72370    0.19840    0.86460    1.000
    H32      H        0.81880    0.23220    0.77610    1.000
    H33      H        0.74800    0.32660    0.78420    1.000
    H34      H        0.41490    0.67470    0.66690    1.000
    H35      H        0.30380    0.62840    0.73490    1.000
    H36      H        0.41150    0.56240    0.77390    1.000
    H37      H        0.42950    0.26790    0.19450    1.000
    H38      H        0.58650    0.36660    0.10620    1.000
    H39      H        0.73780    0.43860    0.01820    1.000
    H40      H        0.87090    0.56430    0.90640    1.000
    H41      H        0.37120    0.18420    0.92690    1.000
    H42      H        0.27060    0.25200    0.94040    1.000
    H43      H        0.35790    0.31270    0.84520    1.000
    H44      H        0.67450    0.67960    0.60900    1.000
    H45      H        0.78780    0.62950    0.59480    1.000
    H46      H        0.68180    0.55700    0.62460    1.000
    H47      H        0.11190    0.26350    0.64820    1.000
    H48      H        0.20350    0.17490    0.69910    1.000
    H49      H        0.18800    0.22250    0.58300    1.000
    H50      H        0.69260    0.17350    0.23670    1.000
    H51      H        0.75330    0.06410    0.24930    1.000
    H52      H        0.65160    0.05360    0.32590    1.000
