# CIF file generated by openbabel 3.1.0, see https://openbabel.org
data_I
_chemical_name_common 'image0'
_cell_length_a 19.4256
_cell_length_b 21.1949
_cell_length_c 26.6468
_cell_angle_alpha 90
_cell_angle_beta 90
_cell_angle_gamma 90
_space_group_name_H-M_alt 'P 1'
_space_group_name_Hall 'P 1'
loop_
    _symmetry_equiv_pos_as_xyz
    x,y,z
loop_
    _atom_site_label
    _atom_site_type_symbol
    _atom_site_fract_x
    _atom_site_fract_y
    _atom_site_fract_z
    _atom_site_occupancy
    C1       C        0.67260    0.37840    0.66880    1.000
    C2       C        0.65380    0.33300    0.59690    1.000
    C3       C        0.58190    0.31170    0.66270    1.000
    C4       C        0.71470    0.41830    0.70440    1.000
    C5       C        0.69680    0.42660    0.75320    1.000
    H1       H        0.65990    0.40480    0.76720    1.000
    C6       C        0.73460    0.46790    0.78090    1.000
    H2       H        0.71980    0.47460    0.81370    1.000
    C7       C        0.80870    0.49530    0.71720    1.000
    H3       H        0.84470    0.51970    0.70480    1.000
    C8       C        0.77120    0.45070    0.68240    1.000
    H4       H        0.78420    0.44490    0.64910    1.000
    C9       C        0.66230    0.32080    0.54260    1.000
    C10      C        0.71690    0.35830    0.52030    1.000
    H5       H        0.74030    0.38830    0.53920    1.000
    C11      C        0.73400    0.34820    0.46820    1.000
    H6       H        0.76800    0.37260    0.45300    1.000
    C12      C        0.64550    0.27000    0.46440    1.000
    H7       H        0.61580    0.24540    0.44520    1.000
    C13      C        0.63420    0.27370    0.51560    1.000
    H8       H        0.60710    0.24350    0.53140    1.000
    C14      C        0.52320    0.27800    0.68240    1.000
    C15      C        0.49310    0.22950    0.65710    1.000
    H9       H        0.51070    0.21700    0.62620    1.000
    C16      C        0.43560    0.19820    0.67740    1.000
    H10      H        0.41620    0.16450    0.66010    1.000
    C17      C        0.43970    0.25860    0.74710    1.000
    H11      H        0.42370    0.26860    0.77900    1.000
    C18      C        0.49570    0.29030    0.73140    1.000
    H12      H        0.51640    0.32000    0.75220    1.000
    C19      C        0.94420    0.55980    0.02210    1.000
    C20      C        0.94490    0.52230    0.10220    1.000
    C21      C        0.02020    0.59580    0.07690    1.000
    C22      C        0.92220    0.55910    0.96830    1.000
    C23      C        0.95670    0.59350    0.93010    1.000
    H13      H        0.99700    0.61540    0.93730    1.000
    C24      C        0.93090    0.59380    0.88410    1.000
    H14      H        0.95200    0.61980    0.86060    1.000
    C25      C        0.84540    0.52270    0.90460    1.000
    H15      H        0.80790    0.49800    0.89540    1.000
    C26      C        0.86720    0.52000    0.95470    1.000
    H16      H        0.84610    0.49340    0.97790    1.000
    C27      C        0.91150    0.48290    0.13870    1.000
    C28      C        0.85290    0.44240    0.12470    1.000
    H17      H        0.83290    0.44570    0.09310    1.000
    C29      C        0.82960    0.40200    0.15740    1.000
    H18      H        0.79310    0.37620    0.14800    1.000
    C30      C        0.91260    0.43470    0.21940    1.000
    H19      H        0.92990    0.43230    0.25190    1.000
    C31      C        0.94180    0.47570    0.18680    1.000
    H20      H        0.98080    0.49850    0.19570    1.000
    C32      C        0.08120    0.63690    0.08920    1.000
    C33      C        0.11760    0.63450    0.13750    1.000
    H21      H        0.10420    0.60610    0.16230    1.000
    C34      C        0.16750    0.67170    0.14470    1.000
    H22      H        0.19010    0.66840    0.17540    1.000
    C35      C        0.15570    0.72200    0.07120    1.000
    H23      H        0.16490    0.75670    0.05090    1.000
    C36      C        0.10330    0.67830    0.05570    1.000
    H24      H        0.08560    0.67910    0.02330    1.000
    Cu1      Cu       0.82951    0.57419    0.80198    1.000
    Cu2      Cu       0.72691    0.27774    0.37161    1.000
    I1       I        0.84871    0.63036    0.60063    1.000
    N1       N        0.69330    0.37140    0.62350    1.000
    N2       N        0.59620    0.30010    0.61580    1.000
    N3       N        0.61700    0.34960    0.69120    1.000
    N4       N        0.79080    0.50030    0.76650    1.000
    N5       N        0.69910    0.30120    0.44010    1.000
    N6       N        0.40690    0.21760    0.72400    1.000
    N7       N        0.91750    0.52080    0.05440    1.000
    N8       N        0.99690    0.56010    0.11490    1.000
    N9       N        0.00300    0.59650    0.03120    1.000
    N10      N        0.87530    0.55910    0.86830    1.000
    Cu3      Cu       0.31985    0.17349    0.74619    1.000
    N11      N        0.85650    0.39530    0.20600    1.000
    N12      N        0.19140    0.71520    0.11310    1.000
    Cu4      Cu       0.83832    0.66535    0.68398    1.000
    S1       S        0.89719    0.63725    0.75254    1.000
    S2       S        0.24317    0.23566    0.78789    1.000
    S3       S        0.73795    0.63894    0.82376    1.000
    S4       S        0.64801    0.22610    0.32447    1.000
    W1       W        0.81294    0.69792    0.77736    1.000
    C37      C        0.82740    0.62160    0.16880    1.000
    C38      C        0.84620    0.66700    0.09690    1.000
    C39      C        0.91810    0.68830    0.16270    1.000
    C40      C        0.78530    0.58170    0.20440    1.000
    C41      C        0.80320    0.57340    0.25320    1.000
    H25      H        0.84010    0.59520    0.26720    1.000
    C42      C        0.76540    0.53210    0.28090    1.000
    H26      H        0.78020    0.52540    0.31370    1.000
    C43      C        0.69130    0.50470    0.21720    1.000
    H27      H        0.65530    0.48030    0.20480    1.000
    C44      C        0.72880    0.54930    0.18240    1.000
    H28      H        0.71580    0.55510    0.14910    1.000
    C45      C        0.83770    0.67920    0.04260    1.000
    C46      C        0.78310    0.64170    0.02030    1.000
    H29      H        0.75970    0.61170    0.03920    1.000
    C47      C        0.76600    0.65180    0.96820    1.000
    H30      H        0.73200    0.62740    0.95300    1.000
    C48      C        0.85450    0.73000    0.96440    1.000
    H31      H        0.88420    0.75460    0.94520    1.000
    C49      C        0.86580    0.72630    0.01560    1.000
    H32      H        0.89290    0.75650    0.03140    1.000
    C50      C        0.97680    0.72200    0.18240    1.000
    C51      C        0.00690    0.77050    0.15710    1.000
    H33      H        0.98930    0.78300    0.12620    1.000
    C52      C        0.06440    0.80180    0.17740    1.000
    H34      H        0.08380    0.83550    0.16010    1.000
    C53      C        0.06030    0.74140    0.24710    1.000
    H35      H        0.07630    0.73140    0.27900    1.000
    C54      C        0.00430    0.70970    0.23140    1.000
    H36      H        0.98360    0.68000    0.25220    1.000
    C55      C        0.55580    0.44020    0.52210    1.000
    C56      C        0.55510    0.47770    0.60220    1.000
    C57      C        0.47980    0.40420    0.57690    1.000
    C58      C        0.57780    0.44090    0.46830    1.000
    C59      C        0.54330    0.40650    0.43010    1.000
    H37      H        0.50300    0.38460    0.43730    1.000
    C60      C        0.56910    0.40620    0.38410    1.000
    H38      H        0.54800    0.38020    0.36060    1.000
    C61      C        0.65460    0.47730    0.40460    1.000
    H39      H        0.69210    0.50200    0.39540    1.000
    C62      C        0.63280    0.48000    0.45470    1.000
    H40      H        0.65390    0.50660    0.47790    1.000
    C63      C        0.58850    0.51710    0.63870    1.000
    C64      C        0.64710    0.55760    0.62470    1.000
    H41      H        0.66710    0.55430    0.59310    1.000
    C65      C        0.67040    0.59800    0.65740    1.000
    H42      H        0.70690    0.62380    0.64800    1.000
    C66      C        0.58740    0.56530    0.71940    1.000
    H43      H        0.57010    0.56770    0.75190    1.000
    C67      C        0.55820    0.52430    0.68680    1.000
    H44      H        0.51920    0.50150    0.69570    1.000
    C68      C        0.41880    0.36310    0.58920    1.000
    C69      C        0.38240    0.36550    0.63750    1.000
    H45      H        0.39580    0.39390    0.66230    1.000
    C70      C        0.33250    0.32830    0.64470    1.000
    H46      H        0.30990    0.33160    0.67540    1.000
    C71      C        0.34430    0.27800    0.57120    1.000
    H47      H        0.33510    0.24330    0.55090    1.000
    C72      C        0.39670    0.32170    0.55570    1.000
    H48      H        0.41440    0.32090    0.52330    1.000
    Cu5      Cu       0.67049    0.42581    0.30198    1.000
    Cu6      Cu       0.77309    0.72226    0.87161    1.000
    I2       I        0.65129    0.36964    0.10063    1.000
    N13      N        0.80670    0.62860    0.12350    1.000
    N14      N        0.90380    0.69990    0.11580    1.000
    N15      N        0.88300    0.65040    0.19120    1.000
    N16      N        0.70920    0.49970    0.26650    1.000
    N17      N        0.80090    0.69880    0.94010    1.000
    N18      N        0.09310    0.78240    0.22400    1.000
    N19      N        0.58250    0.47920    0.55440    1.000
    N20      N        0.50310    0.43990    0.61490    1.000
    N21      N        0.49700    0.40350    0.53120    1.000
    N22      N        0.62470    0.44090    0.36830    1.000
    Cu7      Cu       0.18015    0.82651    0.24619    1.000
    N23      N        0.64350    0.60470    0.70600    1.000
    N24      N        0.30860    0.28480    0.61310    1.000
    Cu8      Cu       0.66168    0.33465    0.18398    1.000
    S5       S        0.60281    0.36275    0.25254    1.000
    S6       S        0.25683    0.76434    0.28789    1.000
    S7       S        0.76205    0.36106    0.32376    1.000
    S8       S        0.85199    0.77390    0.82447    1.000
    W2       W        0.68706    0.30208    0.27736    1.000
    C73      C        0.32740    0.87840    0.83120    1.000
    C74      C        0.34620    0.83300    0.90310    1.000
    C75      C        0.41810    0.81170    0.83730    1.000
    C76      C        0.28530    0.91830    0.79560    1.000
    C77      C        0.30320    0.92660    0.74680    1.000
    H49      H        0.34010    0.90480    0.73280    1.000
    C78      C        0.26540    0.96790    0.71910    1.000
    H50      H        0.28020    0.97460    0.68630    1.000
    C79      C        0.19130    0.99530    0.78280    1.000
    H51      H        0.15530    0.01970    0.79520    1.000
    C80      C        0.22880    0.95070    0.81760    1.000
    H52      H        0.21580    0.94490    0.85090    1.000
    C81      C        0.33770    0.82080    0.95740    1.000
    C82      C        0.28310    0.85830    0.97970    1.000
    H53      H        0.25970    0.88830    0.96080    1.000
    C83      C        0.26600    0.84820    0.03180    1.000
    H54      H        0.23200    0.87260    0.04700    1.000
    C84      C        0.35450    0.77000    0.03560    1.000
    H55      H        0.38420    0.74540    0.05480    1.000
    C85      C        0.36580    0.77370    0.98440    1.000
    H56      H        0.39290    0.74350    0.96860    1.000
    C86      C        0.47680    0.77800    0.81760    1.000
    C87      C        0.50690    0.72950    0.84290    1.000
    H57      H        0.48930    0.71700    0.87380    1.000
    C88      C        0.56440    0.69820    0.82260    1.000
    H58      H        0.58380    0.66450    0.83990    1.000
    C89      C        0.56030    0.75860    0.75290    1.000
    H59      H        0.57630    0.76860    0.72100    1.000
    C90      C        0.50430    0.79030    0.76860    1.000
    H60      H        0.48360    0.82000    0.74780    1.000
    C91      C        0.05580    0.05980    0.47790    1.000
    C92      C        0.05510    0.02230    0.39780    1.000
    C93      C        0.97980    0.09580    0.42310    1.000
    C94      C        0.07780    0.05910    0.53170    1.000
    C95      C        0.04330    0.09350    0.56990    1.000
    H61      H        0.00300    0.11540    0.56270    1.000
    C96      C        0.06910    0.09380    0.61590    1.000
    H62      H        0.04800    0.11980    0.63940    1.000
    C97      C        0.15460    0.02270    0.59540    1.000
    H63      H        0.19210    0.99800    0.60460    1.000
    C98      C        0.13280    0.02000    0.54530    1.000
    H64      H        0.15390    0.99340    0.52210    1.000
    C99      C        0.08850    0.98290    0.36130    1.000
    C100     C        0.14710    0.94240    0.37530    1.000
    H65      H        0.16710    0.94570    0.40690    1.000
    C101     C        0.17040    0.90200    0.34260    1.000
    H66      H        0.20690    0.87620    0.35200    1.000
    C102     C        0.08740    0.93470    0.28060    1.000
    H67      H        0.07010    0.93230    0.24810    1.000
    C103     C        0.05820    0.97570    0.31320    1.000
    H68      H        0.01920    0.99850    0.30430    1.000
    C104     C        0.91880    0.13690    0.41080    1.000
    C105     C        0.88240    0.13450    0.36250    1.000
    H69      H        0.89580    0.10610    0.33770    1.000
    C106     C        0.83250    0.17170    0.35530    1.000
    H70      H        0.80990    0.16840    0.32460    1.000
    C107     C        0.84430    0.22200    0.42880    1.000
    H71      H        0.83510    0.25670    0.44910    1.000
    C108     C        0.89670    0.17830    0.44430    1.000
    H72      H        0.91440    0.17910    0.47670    1.000
    Cu9      Cu       0.17049    0.07419    0.69802    1.000
    Cu10     Cu       0.27309    0.77774    0.12839    1.000
    I3       I        0.15129    0.13036    0.89937    1.000
    N25      N        0.30670    0.87140    0.87650    1.000
    N26      N        0.40380    0.80010    0.88420    1.000
    N27      N        0.38300    0.84960    0.80880    1.000
    N28      N        0.20920    0.00030    0.73350    1.000
    N29      N        0.30090    0.80120    0.05990    1.000
    N30      N        0.59310    0.71760    0.77600    1.000
    N31      N        0.08250    0.02080    0.44560    1.000
    N32      N        0.00310    0.06010    0.38510    1.000
    N33      N        0.99700    0.09650    0.46880    1.000
    N34      N        0.12470    0.05910    0.63170    1.000
    Cu11     Cu       0.68015    0.67349    0.75381    1.000
    N35      N        0.14350    0.89530    0.29400    1.000
    N36      N        0.80860    0.21520    0.38690    1.000
    Cu12     Cu       0.16168    0.16535    0.81602    1.000
    S9       S        0.10281    0.13725    0.74746    1.000
    S10      S        0.75683    0.73566    0.71211    1.000
    S11      S        0.26205    0.13894    0.67624    1.000
    S12      S        0.35199    0.72610    0.17553    1.000
    W3       W        0.18706    0.19792    0.72264    1.000
    C109     C        0.17260    0.12160    0.33120    1.000
    C110     C        0.15380    0.16700    0.40310    1.000
    C111     C        0.08190    0.18830    0.33730    1.000
    C112     C        0.21470    0.08170    0.29560    1.000
    C113     C        0.19680    0.07340    0.24680    1.000
    H73      H        0.15990    0.09520    0.23280    1.000
    C114     C        0.23460    0.03210    0.21910    1.000
    H74      H        0.21980    0.02540    0.18630    1.000
    C115     C        0.30870    0.00470    0.28280    1.000
    H75      H        0.34470    0.98030    0.29520    1.000
    C116     C        0.27120    0.04930    0.31760    1.000
    H76      H        0.28420    0.05510    0.35090    1.000
    C117     C        0.16230    0.17920    0.45740    1.000
    C118     C        0.21690    0.14170    0.47970    1.000
    H77      H        0.24030    0.11170    0.46080    1.000
    C119     C        0.23400    0.15180    0.53180    1.000
    H78      H        0.26800    0.12740    0.54700    1.000
    C120     C        0.14550    0.23000    0.53560    1.000
    H79      H        0.11580    0.25460    0.55480    1.000
    C121     C        0.13420    0.22630    0.48440    1.000
    H80      H        0.10710    0.25650    0.46860    1.000
    C122     C        0.02320    0.22200    0.31760    1.000
    C123     C        0.99310    0.27050    0.34290    1.000
    H81      H        0.01070    0.28300    0.37380    1.000
    C124     C        0.93560    0.30180    0.32260    1.000
    H82      H        0.91620    0.33550    0.33990    1.000
    C125     C        0.93970    0.24140    0.25290    1.000
    H83      H        0.92370    0.23140    0.22100    1.000
    C126     C        0.99570    0.20970    0.26860    1.000
    H84      H        0.01640    0.18000    0.24780    1.000
    C127     C        0.44420    0.94020    0.97790    1.000
    C128     C        0.44490    0.97770    0.89780    1.000
    C129     C        0.52020    0.90420    0.92310    1.000
    C130     C        0.42220    0.94090    0.03170    1.000
    C131     C        0.45670    0.90650    0.06990    1.000
    H85      H        0.49700    0.88460    0.06270    1.000
    C132     C        0.43090    0.90620    0.11590    1.000
    H86      H        0.45200    0.88020    0.13940    1.000
    C133     C        0.34540    0.97730    0.09540    1.000
    H87      H        0.30790    0.00200    0.10460    1.000
    C134     C        0.36720    0.98000    0.04530    1.000
    H88      H        0.34610    0.00660    0.02210    1.000
    C135     C        0.41150    0.01710    0.86130    1.000
    C136     C        0.35290    0.05760    0.87530    1.000
    H89      H        0.33290    0.05430    0.90690    1.000
    C137     C        0.32960    0.09800    0.84260    1.000
    H90      H        0.29310    0.12380    0.85200    1.000
    C138     C        0.41260    0.06530    0.78060    1.000
    H91      H        0.42990    0.06770    0.74810    1.000
    C139     C        0.44180    0.02430    0.81320    1.000
    H92      H        0.48080    0.00150    0.80430    1.000
    C140     C        0.58120    0.86310    0.91080    1.000
    C141     C        0.61760    0.86550    0.86250    1.000
    H93      H        0.60420    0.89390    0.83770    1.000
    C142     C        0.66750    0.82830    0.85530    1.000
    H94      H        0.69010    0.83160    0.82460    1.000
    C143     C        0.65570    0.77800    0.92880    1.000
    H95      H        0.66490    0.74330    0.94910    1.000
    C144     C        0.60330    0.82170    0.94430    1.000
    H96      H        0.58560    0.82090    0.97670    1.000
    Cu13     Cu       0.32951    0.92581    0.19802    1.000
    Cu14     Cu       0.22691    0.22226    0.62839    1.000
    I4       I        0.34871    0.86964    0.39937    1.000
    N37      N        0.19330    0.12860    0.37650    1.000
    N38      N        0.09620    0.19990    0.38420    1.000
    N39      N        0.11700    0.15040    0.30880    1.000
    N40      N        0.29080    0.99970    0.23350    1.000
    N41      N        0.19910    0.19880    0.55990    1.000
    N42      N        0.90690    0.28240    0.27600    1.000
    N43      N        0.41750    0.97920    0.94560    1.000
    N44      N        0.49690    0.93990    0.88510    1.000
    N45      N        0.50300    0.90350    0.96880    1.000
    N46      N        0.37530    0.94090    0.13170    1.000
    Cu15     Cu       0.81985    0.32651    0.25381    1.000
    N47      N        0.35650    0.10470    0.79400    1.000
    N48      N        0.69140    0.78480    0.88690    1.000
    Cu16     Cu       0.33832    0.83465    0.31602    1.000
    S13      S        0.39719    0.86275    0.24746    1.000
    S14      S        0.74317    0.26434    0.21211    1.000
    S15      S        0.23795    0.86106    0.17624    1.000
    S16      S        0.14801    0.27390    0.67553    1.000
    W4       W        0.31294    0.80208    0.22264    1.000
    C145     C        0.32740    0.62160    0.33120    1.000
    C146     C        0.34620    0.66700    0.40310    1.000
    C147     C        0.41810    0.68830    0.33730    1.000
    C148     C        0.28530    0.58170    0.29560    1.000
    C149     C        0.30320    0.57340    0.24680    1.000
    H97      H        0.34010    0.59520    0.23280    1.000
    C150     C        0.26540    0.53210    0.21910    1.000
    H98      H        0.28020    0.52540    0.18630    1.000
    C151     C        0.19130    0.50470    0.28280    1.000
    H99      H        0.15530    0.48030    0.29520    1.000
    C152     C        0.22880    0.54930    0.31760    1.000
    H100     H        0.21580    0.55510    0.35090    1.000
    C153     C        0.33770    0.67920    0.45740    1.000
    C154     C        0.28310    0.64170    0.47970    1.000
    H101     H        0.25970    0.61170    0.46080    1.000
    C155     C        0.26600    0.65180    0.53180    1.000
    H102     H        0.23200    0.62740    0.54700    1.000
    C156     C        0.35450    0.73000    0.53560    1.000
    H103     H        0.38420    0.75460    0.55480    1.000
    C157     C        0.36580    0.72630    0.48440    1.000
    H104     H        0.39290    0.75650    0.46860    1.000
    C158     C        0.47680    0.72200    0.31760    1.000
    C159     C        0.50690    0.77050    0.34290    1.000
    H105     H        0.48930    0.78300    0.37380    1.000
    C160     C        0.56440    0.80180    0.32260    1.000
    H106     H        0.58380    0.83550    0.33990    1.000
    C161     C        0.56030    0.74140    0.25290    1.000
    H107     H        0.57630    0.73140    0.22100    1.000
    C162     C        0.50430    0.70970    0.26860    1.000
    H108     H        0.48360    0.68000    0.24780    1.000
    C163     C        0.05580    0.44020    0.97790    1.000
    C164     C        0.05510    0.47770    0.89780    1.000
    C165     C        0.97980    0.40420    0.92310    1.000
    C166     C        0.07780    0.44090    0.03170    1.000
    C167     C        0.04330    0.40650    0.06990    1.000
    H109     H        0.00300    0.38460    0.06270    1.000
    C168     C        0.06910    0.40620    0.11590    1.000
    H110     H        0.04800    0.38020    0.13940    1.000
    C169     C        0.15460    0.47730    0.09540    1.000
    H111     H        0.19210    0.50200    0.10460    1.000
    C170     C        0.13280    0.48000    0.04530    1.000
    H112     H        0.15390    0.50660    0.02210    1.000
    C171     C        0.08850    0.51710    0.86130    1.000
    C172     C        0.14710    0.55760    0.87530    1.000
    H113     H        0.16710    0.55430    0.90690    1.000
    C173     C        0.17040    0.59800    0.84260    1.000
    H114     H        0.20690    0.62380    0.85200    1.000
    C174     C        0.08740    0.56530    0.78060    1.000
    H115     H        0.07010    0.56770    0.74810    1.000
    C175     C        0.05820    0.52430    0.81320    1.000
    H116     H        0.01920    0.50150    0.80430    1.000
    C176     C        0.91880    0.36310    0.91080    1.000
    C177     C        0.88240    0.36550    0.86250    1.000
    H117     H        0.89580    0.39390    0.83770    1.000
    C178     C        0.83250    0.32830    0.85530    1.000
    H118     H        0.80990    0.33160    0.82460    1.000
    C179     C        0.84430    0.27800    0.92880    1.000
    H119     H        0.83510    0.24330    0.94910    1.000
    C180     C        0.89670    0.32170    0.94430    1.000
    H120     H        0.91440    0.32090    0.97670    1.000
    Cu17     Cu       0.17049    0.42581    0.19802    1.000
    Cu18     Cu       0.27309    0.72226    0.62839    1.000
    I5       I        0.15129    0.36964    0.39937    1.000
    N49      N        0.30670    0.62860    0.37650    1.000
    N50      N        0.40380    0.69990    0.38420    1.000
    N51      N        0.38300    0.65040    0.30880    1.000
    N52      N        0.20920    0.49970    0.23350    1.000
    N53      N        0.30090    0.69880    0.55990    1.000
    N54      N        0.59310    0.78240    0.27600    1.000
    N55      N        0.08250    0.47920    0.94560    1.000
    N56      N        0.00310    0.43990    0.88510    1.000
    N57      N        0.99700    0.40350    0.96880    1.000
    N58      N        0.12470    0.44090    0.13170    1.000
    Cu19     Cu       0.68015    0.82651    0.25381    1.000
    N59      N        0.14350    0.60470    0.79400    1.000
    N60      N        0.80860    0.28480    0.88690    1.000
    Cu20     Cu       0.16168    0.33465    0.31602    1.000
    S17      S        0.10281    0.36275    0.24746    1.000
    S18      S        0.75683    0.76434    0.21211    1.000
    S19      S        0.26205    0.36106    0.17624    1.000
    S20      S        0.35199    0.77390    0.67553    1.000
    W5       W        0.18706    0.30208    0.22264    1.000
    C181     C        0.17260    0.37840    0.83120    1.000
    C182     C        0.15380    0.33300    0.90310    1.000
    C183     C        0.08190    0.31170    0.83730    1.000
    C184     C        0.21470    0.41830    0.79560    1.000
    C185     C        0.19680    0.42660    0.74680    1.000
    H121     H        0.15990    0.40480    0.73280    1.000
    C186     C        0.23460    0.46790    0.71910    1.000
    H122     H        0.21980    0.47460    0.68630    1.000
    C187     C        0.30870    0.49530    0.78280    1.000
    H123     H        0.34470    0.51970    0.79520    1.000
    C188     C        0.27120    0.45070    0.81760    1.000
    H124     H        0.28420    0.44490    0.85090    1.000
    C189     C        0.16230    0.32080    0.95740    1.000
    C190     C        0.21690    0.35830    0.97970    1.000
    H125     H        0.24030    0.38830    0.96080    1.000
    C191     C        0.23400    0.34820    0.03180    1.000
    H126     H        0.26800    0.37260    0.04700    1.000
    C192     C        0.14550    0.27000    0.03560    1.000
    H127     H        0.11580    0.24540    0.05480    1.000
    C193     C        0.13420    0.27370    0.98440    1.000
    H128     H        0.10710    0.24350    0.96860    1.000
    C194     C        0.02320    0.27800    0.81760    1.000
    C195     C        0.99310    0.22950    0.84290    1.000
    H129     H        0.01070    0.21700    0.87380    1.000
    C196     C        0.93560    0.19820    0.82260    1.000
    H130     H        0.91620    0.16450    0.83990    1.000
    C197     C        0.93970    0.25860    0.75290    1.000
    H131     H        0.92370    0.26860    0.72100    1.000
    C198     C        0.99570    0.29030    0.76860    1.000
    H132     H        0.01640    0.32000    0.74780    1.000
    C199     C        0.44420    0.55980    0.47790    1.000
    C200     C        0.44490    0.52230    0.39780    1.000
    C201     C        0.52020    0.59580    0.42310    1.000
    C202     C        0.42220    0.55910    0.53170    1.000
    C203     C        0.45670    0.59350    0.56990    1.000
    H133     H        0.49700    0.61540    0.56270    1.000
    C204     C        0.43090    0.59380    0.61590    1.000
    H134     H        0.45200    0.61980    0.63940    1.000
    C205     C        0.34540    0.52270    0.59540    1.000
    H135     H        0.30790    0.49800    0.60460    1.000
    C206     C        0.36720    0.52000    0.54530    1.000
    H136     H        0.34610    0.49340    0.52210    1.000
    C207     C        0.41150    0.48290    0.36130    1.000
    C208     C        0.35290    0.44240    0.37530    1.000
    H137     H        0.33290    0.44570    0.40690    1.000
    C209     C        0.32960    0.40200    0.34260    1.000
    H138     H        0.29310    0.37620    0.35200    1.000
    C210     C        0.41260    0.43470    0.28060    1.000
    H139     H        0.42990    0.43230    0.24810    1.000
    C211     C        0.44180    0.47570    0.31320    1.000
    H140     H        0.48080    0.49850    0.30430    1.000
    C212     C        0.58120    0.63690    0.41080    1.000
    C213     C        0.61760    0.63450    0.36250    1.000
    H141     H        0.60420    0.60610    0.33770    1.000
    C214     C        0.66750    0.67170    0.35530    1.000
    H142     H        0.69010    0.66840    0.32460    1.000
    C215     C        0.65570    0.72200    0.42880    1.000
    H143     H        0.66490    0.75670    0.44910    1.000
    C216     C        0.60330    0.67830    0.44430    1.000
    H144     H        0.58560    0.67910    0.47670    1.000
    Cu21     Cu       0.32951    0.57419    0.69802    1.000
    Cu22     Cu       0.22691    0.27774    0.12839    1.000
    I6       I        0.34871    0.63036    0.89937    1.000
    N61      N        0.19330    0.37140    0.87650    1.000
    N62      N        0.09620    0.30010    0.88420    1.000
    N63      N        0.11700    0.34960    0.80880    1.000
    N64      N        0.29080    0.50030    0.73350    1.000
    N65      N        0.19910    0.30120    0.05990    1.000
    N66      N        0.90690    0.21760    0.77600    1.000
    N67      N        0.41750    0.52080    0.44560    1.000
    N68      N        0.49690    0.56010    0.38510    1.000
    N69      N        0.50300    0.59650    0.46880    1.000
    N70      N        0.37530    0.55910    0.63170    1.000
    Cu23     Cu       0.81985    0.17349    0.75381    1.000
    N71      N        0.35650    0.39530    0.29400    1.000
    N72      N        0.69140    0.71520    0.38690    1.000
    Cu24     Cu       0.33832    0.66535    0.81602    1.000
    S21      S        0.39719    0.63725    0.74746    1.000
    S22      S        0.74317    0.23566    0.71211    1.000
    S23      S        0.23795    0.63894    0.67624    1.000
    S24      S        0.14801    0.22610    0.17553    1.000
    W6       W        0.31294    0.69792    0.72264    1.000
    C217     C        0.67260    0.12160    0.16880    1.000
    C218     C        0.65380    0.16700    0.09690    1.000
    C219     C        0.58190    0.18830    0.16270    1.000
    C220     C        0.71470    0.08170    0.20440    1.000
    C221     C        0.69680    0.07340    0.25320    1.000
    H145     H        0.65990    0.09520    0.26720    1.000
    C222     C        0.73460    0.03210    0.28090    1.000
    H146     H        0.71980    0.02540    0.31370    1.000
    C223     C        0.80870    0.00470    0.21720    1.000
    H147     H        0.84470    0.98030    0.20480    1.000
    C224     C        0.77120    0.04930    0.18240    1.000
    H148     H        0.78420    0.05510    0.14910    1.000
    C225     C        0.66230    0.17920    0.04260    1.000
    C226     C        0.71690    0.14170    0.02030    1.000
    H149     H        0.74030    0.11170    0.03920    1.000
    C227     C        0.73400    0.15180    0.96820    1.000
    H150     H        0.76800    0.12740    0.95300    1.000
    C228     C        0.64550    0.23000    0.96440    1.000
    H151     H        0.61580    0.25460    0.94520    1.000
    C229     C        0.63420    0.22630    0.01560    1.000
    H152     H        0.60710    0.25650    0.03140    1.000
    C230     C        0.52320    0.22200    0.18240    1.000
    C231     C        0.49310    0.27050    0.15710    1.000
    H153     H        0.51070    0.28300    0.12620    1.000
    C232     C        0.43560    0.30180    0.17740    1.000
    H154     H        0.41620    0.33550    0.16010    1.000
    C233     C        0.43970    0.24140    0.24710    1.000
    H155     H        0.42370    0.23140    0.27900    1.000
    C234     C        0.49570    0.20970    0.23140    1.000
    H156     H        0.51640    0.18000    0.25220    1.000
    C235     C        0.94420    0.94020    0.52210    1.000
    C236     C        0.94490    0.97770    0.60220    1.000
    C237     C        0.02020    0.90420    0.57690    1.000
    C238     C        0.92220    0.94090    0.46830    1.000
    C239     C        0.95670    0.90650    0.43010    1.000
    H157     H        0.99700    0.88460    0.43730    1.000
    C240     C        0.93090    0.90620    0.38410    1.000
    H158     H        0.95200    0.88020    0.36060    1.000
    C241     C        0.84540    0.97730    0.40460    1.000
    H159     H        0.80790    0.00200    0.39540    1.000
    C242     C        0.86720    0.98000    0.45470    1.000
    H160     H        0.84610    0.00660    0.47790    1.000
    C243     C        0.91150    0.01710    0.63870    1.000
    C244     C        0.85290    0.05760    0.62470    1.000
    H161     H        0.83290    0.05430    0.59310    1.000
    C245     C        0.82960    0.09800    0.65740    1.000
    H162     H        0.79310    0.12380    0.64800    1.000
    C246     C        0.91260    0.06530    0.71940    1.000
    H163     H        0.92990    0.06770    0.75190    1.000
    C247     C        0.94180    0.02430    0.68680    1.000
    H164     H        0.98080    0.00150    0.69570    1.000
    C248     C        0.08120    0.86310    0.58920    1.000
    C249     C        0.11760    0.86550    0.63750    1.000
    H165     H        0.10420    0.89390    0.66230    1.000
    C250     C        0.16750    0.82830    0.64470    1.000
    H166     H        0.19010    0.83160    0.67540    1.000
    C251     C        0.15570    0.77800    0.57120    1.000
    H167     H        0.16490    0.74330    0.55090    1.000
    C252     C        0.10330    0.82170    0.55570    1.000
    H168     H        0.08560    0.82090    0.52330    1.000
    Cu25     Cu       0.82951    0.92581    0.30198    1.000
    Cu26     Cu       0.72691    0.22226    0.87161    1.000
    I7       I        0.84871    0.86964    0.10063    1.000
    N73      N        0.69330    0.12860    0.12350    1.000
    N74      N        0.59620    0.19990    0.11580    1.000
    N75      N        0.61700    0.15040    0.19120    1.000
    N76      N        0.79080    0.99970    0.26650    1.000
    N77      N        0.69910    0.19880    0.94010    1.000
    N78      N        0.40690    0.28240    0.22400    1.000
    N79      N        0.91750    0.97920    0.55440    1.000
    N80      N        0.99690    0.93990    0.61490    1.000
    N81      N        0.00300    0.90350    0.53120    1.000
    N82      N        0.87530    0.94090    0.36830    1.000
    Cu27     Cu       0.31985    0.32651    0.24619    1.000
    N83      N        0.85650    0.10470    0.70600    1.000
    N84      N        0.19140    0.78480    0.61310    1.000
    Cu28     Cu       0.83832    0.83465    0.18398    1.000
    S25      S        0.89719    0.86275    0.25254    1.000
    S26      S        0.24317    0.26434    0.28789    1.000
    S27      S        0.73795    0.86106    0.32376    1.000
    S28      S        0.64801    0.27390    0.82447    1.000
    W7       W        0.81294    0.80208    0.27736    1.000
    C253     C        0.82740    0.87840    0.66880    1.000
    C254     C        0.84620    0.83300    0.59690    1.000
    C255     C        0.91810    0.81170    0.66270    1.000
    C256     C        0.78530    0.91830    0.70440    1.000
    C257     C        0.80320    0.92660    0.75320    1.000
    H169     H        0.84010    0.90480    0.76720    1.000
    C258     C        0.76540    0.96790    0.78090    1.000
    H170     H        0.78020    0.97460    0.81370    1.000
    C259     C        0.69130    0.99530    0.71720    1.000
    H171     H        0.65530    0.01970    0.70480    1.000
    C260     C        0.72880    0.95070    0.68240    1.000
    H172     H        0.71580    0.94490    0.64910    1.000
    C261     C        0.83770    0.82080    0.54260    1.000
    C262     C        0.78310    0.85830    0.52030    1.000
    H173     H        0.75970    0.88830    0.53920    1.000
    C263     C        0.76600    0.84820    0.46820    1.000
    H174     H        0.73200    0.87260    0.45300    1.000
    C264     C        0.85450    0.77000    0.46440    1.000
    H175     H        0.88420    0.74540    0.44520    1.000
    C265     C        0.86580    0.77370    0.51560    1.000
    H176     H        0.89290    0.74350    0.53140    1.000
    C266     C        0.97680    0.77800    0.68240    1.000
    C267     C        0.00690    0.72950    0.65710    1.000
    H177     H        0.98930    0.71700    0.62620    1.000
    C268     C        0.06440    0.69820    0.67740    1.000
    H178     H        0.08380    0.66450    0.66010    1.000
    C269     C        0.06030    0.75860    0.74710    1.000
    H179     H        0.07630    0.76860    0.77900    1.000
    C270     C        0.00430    0.79030    0.73140    1.000
    H180     H        0.98360    0.82000    0.75220    1.000
    C271     C        0.55580    0.05980    0.02210    1.000
    C272     C        0.55510    0.02230    0.10220    1.000
    C273     C        0.47980    0.09580    0.07690    1.000
    C274     C        0.57780    0.05910    0.96830    1.000
    C275     C        0.54330    0.09350    0.93010    1.000
    H181     H        0.50300    0.11540    0.93730    1.000
    C276     C        0.56910    0.09380    0.88410    1.000
    H182     H        0.54800    0.11980    0.86060    1.000
    C277     C        0.65460    0.02270    0.90460    1.000
    H183     H        0.69210    0.99800    0.89540    1.000
    C278     C        0.63280    0.02000    0.95470    1.000
    H184     H        0.65390    0.99340    0.97790    1.000
    C279     C        0.58850    0.98290    0.13870    1.000
    C280     C        0.64710    0.94240    0.12470    1.000
    H185     H        0.66710    0.94570    0.09310    1.000
    C281     C        0.67040    0.90200    0.15740    1.000
    H186     H        0.70690    0.87620    0.14800    1.000
    C282     C        0.58740    0.93470    0.21940    1.000
    H187     H        0.57010    0.93230    0.25190    1.000
    C283     C        0.55820    0.97570    0.18680    1.000
    H188     H        0.51920    0.99850    0.19570    1.000
    C284     C        0.41880    0.13690    0.08920    1.000
    C285     C        0.38240    0.13450    0.13750    1.000
    H189     H        0.39580    0.10610    0.16230    1.000
    C286     C        0.33250    0.17170    0.14470    1.000
    H190     H        0.30990    0.16840    0.17540    1.000
    C287     C        0.34430    0.22200    0.07120    1.000
    H191     H        0.33510    0.25670    0.05090    1.000
    C288     C        0.39670    0.17830    0.05570    1.000
    H192     H        0.41440    0.17910    0.02330    1.000
    Cu29     Cu       0.67049    0.07419    0.80198    1.000
    Cu30     Cu       0.77309    0.77774    0.37161    1.000
    I8       I        0.65129    0.13036    0.60063    1.000
    N85      N        0.80670    0.87140    0.62350    1.000
    N86      N        0.90380    0.80010    0.61580    1.000
    N87      N        0.88300    0.84960    0.69120    1.000
    N88      N        0.70920    0.00030    0.76650    1.000
    N89      N        0.80090    0.80120    0.44010    1.000
    N90      N        0.09310    0.71760    0.72400    1.000
    N91      N        0.58250    0.02080    0.05440    1.000
    N92      N        0.50310    0.06010    0.11490    1.000
    N93      N        0.49700    0.09650    0.03120    1.000
    N94      N        0.62470    0.05910    0.86830    1.000
    Cu31     Cu       0.18015    0.67349    0.74619    1.000
    N95      N        0.64350    0.89530    0.20600    1.000
    N96      N        0.30860    0.21520    0.11310    1.000
    Cu32     Cu       0.66168    0.16535    0.68398    1.000
    S29      S        0.60281    0.13725    0.75254    1.000
    S30      S        0.25683    0.73566    0.78789    1.000
    S31      S        0.76205    0.13894    0.82376    1.000
    S32      S        0.85199    0.72610    0.32447    1.000
    W8       W        0.68706    0.19792    0.77736    1.000
