# CIF file generated by openbabel 3.1.0, see https://openbabel.org
data_I
_chemical_name_common 'image0'
_cell_length_a 18.1836
_cell_length_b 10.0126
_cell_length_c 20.0589
_cell_angle_alpha 90
_cell_angle_beta 106.08
_cell_angle_gamma 90
_space_group_name_H-M_alt 'P 1'
_space_group_name_Hall 'P 1'
loop_
    _symmetry_equiv_pos_as_xyz
    x,y,z
loop_
    _atom_site_label
    _atom_site_type_symbol
    _atom_site_fract_x
    _atom_site_fract_y
    _atom_site_fract_z
    _atom_site_occupancy
    Fe1      Fe       0.18740    0.57770    0.16120    1.000
    Fe2      Fe       0.31070    0.31500    0.24000    1.000
    Fe3      Fe       0.42430    0.42930    0.99780    1.000
    P1       P        0.07900    0.82730    0.10690    1.000
    P2       P        0.14130    0.27080    0.13200    1.000
    P3       P        0.33370    0.48400    0.11460    1.000
    O1       O        0.25180    0.53730    0.10100    1.000
    O2       O        0.10990    0.68630    0.09970    1.000
    O3       O        0.12320    0.41840    0.13880    1.000
    O4       O        0.26320    0.48710    0.23890    1.000
    F1       F        0.14530    0.63250    0.24120    1.000
    F2       F        0.24360    0.75160    0.19080    1.000
    O5       O        0.35510    0.36670    0.16590    1.000
    O6       O        0.22410    0.23830    0.16810    1.000
    O7       O        0.09680    0.86690    0.18430    1.000
    O8       O        0.34550    0.44750    0.04540    1.000
    O9       O        0.11690    0.93060    0.07080    1.000
    O10      O        0.12090    0.22840    0.05600    1.000
    F3       F        0.48990    0.58040    0.04810    1.000
    O11      O        0.99100    0.81960    0.07480    1.000
    O12      O        0.08790    0.19500    0.16970    1.000
    O13      O        0.38850    0.60280    0.14810    1.000
    Fe4      Fe       0.68740    0.07770    0.16120    1.000
    Fe5      Fe       0.81070    0.81500    0.24000    1.000
    Fe6      Fe       0.92430    0.92930    0.99780    1.000
    P4       P        0.57900    0.32730    0.10690    1.000
    P5       P        0.64130    0.77080    0.13200    1.000
    P6       P        0.83370    0.98400    0.11460    1.000
    O14      O        0.75180    0.03730    0.10100    1.000
    O15      O        0.60990    0.18630    0.09970    1.000
    O16      O        0.62320    0.91840    0.13880    1.000
    O17      O        0.76320    0.98710    0.23890    1.000
    F4       F        0.64530    0.13250    0.24120    1.000
    F5       F        0.74360    0.25160    0.19080    1.000
    O18      O        0.85510    0.86670    0.16590    1.000
    O19      O        0.72410    0.73830    0.16810    1.000
    O20      O        0.59680    0.36690    0.18430    1.000
    O21      O        0.84550    0.94750    0.04540    1.000
    O22      O        0.61690    0.43060    0.07080    1.000
    O23      O        0.62090    0.72840    0.05600    1.000
    F6       F        0.98990    0.08040    0.04810    1.000
    O24      O        0.49100    0.31960    0.07480    1.000
    O25      O        0.58790    0.69500    0.16970    1.000
    O26      O        0.88850    0.10280    0.14810    1.000
    Fe7      Fe       0.81260    0.57770    0.33880    1.000
    Fe8      Fe       0.68930    0.31500    0.26000    1.000
    Fe9      Fe       0.57570    0.42930    0.50220    1.000
    P7       P        0.92100    0.82730    0.39310    1.000
    P8       P        0.85870    0.27080    0.36800    1.000
    P9       P        0.66630    0.48400    0.38540    1.000
    O27      O        0.74820    0.53730    0.39900    1.000
    O28      O        0.89010    0.68630    0.40030    1.000
    O29      O        0.87680    0.41840    0.36120    1.000
    O30      O        0.73680    0.48710    0.26110    1.000
    F7       F        0.85470    0.63250    0.25880    1.000
    F8       F        0.75640    0.75160    0.30920    1.000
    O31      O        0.64490    0.36670    0.33410    1.000
    O32      O        0.77590    0.23830    0.33190    1.000
    O33      O        0.90320    0.86690    0.31570    1.000
    O34      O        0.65450    0.44750    0.45460    1.000
    O35      O        0.88310    0.93060    0.42920    1.000
    O36      O        0.87910    0.22840    0.44400    1.000
    F9       F        0.51010    0.58040    0.45190    1.000
    O37      O        0.00900    0.81960    0.42520    1.000
    O38      O        0.91210    0.19500    0.33030    1.000
    O39      O        0.61150    0.60280    0.35190    1.000
    Fe10     Fe       0.31260    0.07770    0.33880    1.000
    Fe11     Fe       0.18930    0.81500    0.26000    1.000
    Fe12     Fe       0.07570    0.92930    0.50220    1.000
    P10      P        0.42100    0.32730    0.39310    1.000
    P11      P        0.35870    0.77080    0.36800    1.000
    P12      P        0.16630    0.98400    0.38540    1.000
    O40      O        0.24820    0.03730    0.39900    1.000
    O41      O        0.39010    0.18630    0.40030    1.000
    O42      O        0.37680    0.91840    0.36120    1.000
    O43      O        0.23680    0.98710    0.26110    1.000
    F10      F        0.35470    0.13250    0.25880    1.000
    F11      F        0.25640    0.25160    0.30920    1.000
    O44      O        0.14490    0.86670    0.33410    1.000
    O45      O        0.27590    0.73830    0.33190    1.000
    O46      O        0.40320    0.36690    0.31570    1.000
    O47      O        0.15450    0.94750    0.45460    1.000
    O48      O        0.38310    0.43060    0.42920    1.000
    O49      O        0.37910    0.72840    0.44400    1.000
    F12      F        0.01010    0.08040    0.45190    1.000
    O50      O        0.50900    0.31960    0.42520    1.000
    O51      O        0.41210    0.69500    0.33030    1.000
    O52      O        0.11150    0.10280    0.35190    1.000
    Fe13     Fe       0.81260    0.42230    0.83880    1.000
    Fe14     Fe       0.68930    0.68500    0.76000    1.000
    Fe15     Fe       0.57570    0.57070    0.00220    1.000
    P13      P        0.92100    0.17270    0.89310    1.000
    P14      P        0.85870    0.72920    0.86800    1.000
    P15      P        0.66630    0.51600    0.88540    1.000
    O53      O        0.74820    0.46270    0.89900    1.000
    O54      O        0.89010    0.31370    0.90030    1.000
    O55      O        0.87680    0.58160    0.86120    1.000
    O56      O        0.73680    0.51290    0.76110    1.000
    F13      F        0.85470    0.36750    0.75880    1.000
    F14      F        0.75640    0.24840    0.80920    1.000
    O57      O        0.64490    0.63330    0.83410    1.000
    O58      O        0.77590    0.76170    0.83190    1.000
    O59      O        0.90320    0.13310    0.81570    1.000
    O60      O        0.65450    0.55250    0.95460    1.000
    O61      O        0.88310    0.06940    0.92920    1.000
    O62      O        0.87910    0.77160    0.94400    1.000
    F15      F        0.51010    0.41960    0.95190    1.000
    O63      O        0.00900    0.18040    0.92520    1.000
    O64      O        0.91210    0.80500    0.83030    1.000
    O65      O        0.61150    0.39720    0.85190    1.000
    Fe16     Fe       0.31260    0.92230    0.83880    1.000
    Fe17     Fe       0.18930    0.18500    0.76000    1.000
    Fe18     Fe       0.07570    0.07070    0.00220    1.000
    P16      P        0.42100    0.67270    0.89310    1.000
    P17      P        0.35870    0.22920    0.86800    1.000
    P18      P        0.16630    0.01600    0.88540    1.000
    O66      O        0.24820    0.96270    0.89900    1.000
    O67      O        0.39010    0.81370    0.90030    1.000
    O68      O        0.37680    0.08160    0.86120    1.000
    O69      O        0.23680    0.01290    0.76110    1.000
    F16      F        0.35470    0.86750    0.75880    1.000
    F17      F        0.25640    0.74840    0.80920    1.000
    O70      O        0.14490    0.13330    0.83410    1.000
    O71      O        0.27590    0.26170    0.83190    1.000
    O72      O        0.40320    0.63310    0.81570    1.000
    O73      O        0.15450    0.05250    0.95460    1.000
    O74      O        0.38310    0.56940    0.92920    1.000
    O75      O        0.37910    0.27160    0.94400    1.000
    F18      F        0.01010    0.91960    0.95190    1.000
    O76      O        0.50900    0.68040    0.92520    1.000
    O77      O        0.41210    0.30500    0.83030    1.000
    O78      O        0.11150    0.89720    0.85190    1.000
    Fe19     Fe       0.18740    0.42230    0.66120    1.000
    Fe20     Fe       0.31070    0.68500    0.74000    1.000
    Fe21     Fe       0.42430    0.57070    0.49780    1.000
    P19      P        0.07900    0.17270    0.60690    1.000
    P20      P        0.14130    0.72920    0.63200    1.000
    P21      P        0.33370    0.51600    0.61460    1.000
    O79      O        0.25180    0.46270    0.60100    1.000
    O80      O        0.10990    0.31370    0.59970    1.000
    O81      O        0.12320    0.58160    0.63880    1.000
    O82      O        0.26320    0.51290    0.73890    1.000
    F19      F        0.14530    0.36750    0.74120    1.000
    F20      F        0.24360    0.24840    0.69080    1.000
    O83      O        0.35510    0.63330    0.66590    1.000
    O84      O        0.22410    0.76170    0.66810    1.000
    O85      O        0.09680    0.13310    0.68430    1.000
    O86      O        0.34550    0.55250    0.54540    1.000
    O87      O        0.11690    0.06940    0.57080    1.000
    O88      O        0.12090    0.77160    0.55600    1.000
    F21      F        0.48990    0.41960    0.54810    1.000
    O89      O        0.99100    0.18040    0.57480    1.000
    O90      O        0.08790    0.80500    0.66970    1.000
    O91      O        0.38850    0.39720    0.64810    1.000
    Fe22     Fe       0.68740    0.92230    0.66120    1.000
    Fe23     Fe       0.81070    0.18500    0.74000    1.000
    Fe24     Fe       0.92430    0.07070    0.49780    1.000
    P22      P        0.57900    0.67270    0.60690    1.000
    P23      P        0.64130    0.22920    0.63200    1.000
    P24      P        0.83370    0.01600    0.61460    1.000
    O92      O        0.75180    0.96270    0.60100    1.000
    O93      O        0.60990    0.81370    0.59970    1.000
    O94      O        0.62320    0.08160    0.63880    1.000
    O95      O        0.76320    0.01290    0.73890    1.000
    F22      F        0.64530    0.86750    0.74120    1.000
    F23      F        0.74360    0.74840    0.69080    1.000
    O96      O        0.85510    0.13330    0.66590    1.000
    O97      O        0.72410    0.26170    0.66810    1.000
    O98      O        0.59680    0.63310    0.68430    1.000
    O99      O        0.84550    0.05250    0.54540    1.000
    O100     O        0.61690    0.56940    0.57080    1.000
    O101     O        0.62090    0.27160    0.55600    1.000
    F24      F        0.98990    0.91960    0.54810    1.000
    O102     O        0.49100    0.68040    0.57480    1.000
    O103     O        0.58790    0.30500    0.66970    1.000
    O104     O        0.88850    0.89720    0.64810    1.000
