# CIF file generated by openbabel 3.1.0, see https://openbabel.org
data_I
_chemical_name_common 'image0'
_cell_length_a 23.6408
_cell_length_b 16.3714
_cell_length_c 6.587
_cell_angle_alpha 90
_cell_angle_beta 90
_cell_angle_gamma 90
_space_group_name_H-M_alt 'P 1'
_space_group_name_Hall 'P 1'
loop_
    _symmetry_equiv_pos_as_xyz
    x,y,z
loop_
    _atom_site_label
    _atom_site_type_symbol
    _atom_site_fract_x
    _atom_site_fract_y
    _atom_site_fract_z
    _atom_site_occupancy
    Mn1      Mn       0.82556    0.88930    0.88490    1.000
    N1       N        0.61270    0.65290    0.95190    1.000
    N2       N        0.73239    0.92159    0.86800    1.000
    N3       N        0.81870    0.02928    0.89610    1.000
    O1       O        0.79903    0.76030    0.88590    1.000
    O2       O        0.87305    0.67748    0.91000    1.000
    H1       H        0.89060    0.72070    0.91140    1.000
    O3       O        0.66972    0.36910    0.71540    1.000
    O4       O        0.66580    0.37150    0.05080    1.000
    O5       O        0.41514    0.59869    0.87730    1.000
    O6       O        0.44590    0.72055    0.98730    1.000
    C1       C        0.81950    0.69240    0.89670    1.000
    C2       C        0.78319    0.61694    0.89140    1.000
    C3       C        0.80696    0.53910    0.87730    1.000
    H2       H        0.84600    0.53270    0.87010    1.000
    C4       C        0.77175    0.47190    0.87420    1.000
    H3       H        0.78740    0.41990    0.86550    1.000
    C5       C        0.71315    0.48031    0.88390    1.000
    C6       C        0.67963    0.40150    0.88290    1.000
    C7       C        0.68849    0.55880    0.89800    1.000
    C8       C        0.72517    0.62510    0.90120    1.000
    H4       H        0.70990    0.67740    0.91040    1.000
    C9       C        0.62608    0.57550    0.90420    1.000
    C10      C        0.58441    0.51800    0.86610    1.000
    H5       H        0.59440    0.46420    0.83820    1.000
    C11      C        0.52843    0.54010    0.86940    1.000
    H6       H        0.50060    0.50200    0.83770    1.000
    C12      C        0.51360    0.61850    0.91950    1.000
    C13      C        0.55787    0.67260    0.95790    1.000
    H7       H        0.54860    0.72620    0.99000    1.000
    C14      C        0.45352    0.64750    0.92750    1.000
    C15      C        0.69030    0.86860    0.85030    1.000
    H8       H        0.69930    0.81330    0.84520    1.000
    C16      C        0.63340    0.89060    0.83880    1.000
    H9       H        0.60540    0.85130    0.82300    1.000
    C17      C        0.62012    0.97100    0.85130    1.000
    H10      H        0.58250    0.98720    0.84470    1.000
    C18      C        0.66268    0.02980    0.87410    1.000
    C19      C        0.71899    0.00120    0.87850    1.000
    C20      C        0.65190    0.11520    0.88400    1.000
    H11      H        0.61480    0.13390    0.87890    1.000
    C21      C        0.69430    0.16890    0.90030    1.000
    H12      H        0.68600    0.22430    0.91080    1.000
    C22      C        0.75290    0.14260    0.90210    1.000
    C23      C        0.76515    0.05940    0.89450    1.000
    C24      C        0.79770    0.19620    0.91770    1.000
    H13      H        0.79080    0.25200    0.92440    1.000
    C25      C        0.85220    0.16770    0.92350    1.000
    H14      H        0.88250    0.20360    0.93490    1.000
    C26      C        0.86140    0.08200    0.91170    1.000
    H15      H        0.89830    0.06220    0.91490    1.000
    Mn2      Mn       0.17444    0.11070    0.38490    1.000
    N4       N        0.38730    0.34710    0.45190    1.000
    N5       N        0.26761    0.07841    0.36800    1.000
    N6       N        0.18130    0.97072    0.39610    1.000
    O7       O        0.20097    0.23970    0.38590    1.000
    O8       O        0.12695    0.32252    0.41000    1.000
    H16      H        0.10940    0.27930    0.41140    1.000
    O9       O        0.33028    0.63090    0.21540    1.000
    O10      O        0.33420    0.62850    0.55080    1.000
    O11      O        0.58486    0.40131    0.37730    1.000
    O12      O        0.55410    0.27945    0.48730    1.000
    C27      C        0.18050    0.30760    0.39670    1.000
    C28      C        0.21681    0.38306    0.39140    1.000
    C29      C        0.19304    0.46090    0.37730    1.000
    H17      H        0.15400    0.46730    0.37010    1.000
    C30      C        0.22825    0.52810    0.37420    1.000
    H18      H        0.21260    0.58010    0.36550    1.000
    C31      C        0.28685    0.51969    0.38390    1.000
    C32      C        0.32037    0.59850    0.38290    1.000
    C33      C        0.31151    0.44120    0.39800    1.000
    C34      C        0.27483    0.37490    0.40120    1.000
    H19      H        0.29010    0.32260    0.41040    1.000
    C35      C        0.37392    0.42450    0.40420    1.000
    C36      C        0.41559    0.48200    0.36610    1.000
    H20      H        0.40560    0.53580    0.33820    1.000
    C37      C        0.47157    0.45990    0.36940    1.000
    H21      H        0.49940    0.49800    0.33770    1.000
    C38      C        0.48640    0.38150    0.41950    1.000
    C39      C        0.44213    0.32740    0.45790    1.000
    H22      H        0.45140    0.27380    0.49000    1.000
    C40      C        0.54648    0.35250    0.42750    1.000
    C41      C        0.30970    0.13140    0.35030    1.000
    H23      H        0.30070    0.18670    0.34520    1.000
    C42      C        0.36660    0.10940    0.33880    1.000
    H24      H        0.39460    0.14870    0.32300    1.000
    C43      C        0.37988    0.02900    0.35130    1.000
    H25      H        0.41750    0.01280    0.34470    1.000
    C44      C        0.33732    0.97020    0.37410    1.000
    C45      C        0.28101    0.99880    0.37850    1.000
    C46      C        0.34810    0.88480    0.38400    1.000
    H26      H        0.38520    0.86610    0.37890    1.000
    C47      C        0.30570    0.83110    0.40030    1.000
    H27      H        0.31400    0.77570    0.41080    1.000
    C48      C        0.24710    0.85740    0.40210    1.000
    C49      C        0.23485    0.94060    0.39450    1.000
    C50      C        0.20230    0.80380    0.41770    1.000
    H28      H        0.20920    0.74800    0.42440    1.000
    C51      C        0.14780    0.83230    0.42350    1.000
    H29      H        0.11750    0.79640    0.43490    1.000
    C52      C        0.13860    0.91800    0.41170    1.000
    H30      H        0.10170    0.93780    0.41490    1.000
    Mn3      Mn       0.32556    0.61070    0.88490    1.000
    N7       N        0.11270    0.84710    0.95190    1.000
    N8       N        0.23239    0.57841    0.86800    1.000
    N9       N        0.31870    0.47072    0.89610    1.000
    O13      O        0.29903    0.73970    0.88590    1.000
    O14      O        0.37305    0.82252    0.91000    1.000
    H31      H        0.39060    0.77930    0.91140    1.000
    O15      O        0.16972    0.13090    0.71540    1.000
    O16      O        0.16580    0.12850    0.05080    1.000
    O17      O        0.91514    0.90131    0.87730    1.000
    O18      O        0.94590    0.77945    0.98730    1.000
    C53      C        0.31950    0.80760    0.89670    1.000
    C54      C        0.28319    0.88306    0.89140    1.000
    C55      C        0.30696    0.96090    0.87730    1.000
    H32      H        0.34600    0.96730    0.87010    1.000
    C56      C        0.27175    0.02810    0.87420    1.000
    H33      H        0.28740    0.08010    0.86550    1.000
    C57      C        0.21315    0.01969    0.88390    1.000
    C58      C        0.17963    0.09850    0.88290    1.000
    C59      C        0.18849    0.94120    0.89800    1.000
    C60      C        0.22517    0.87490    0.90120    1.000
    H34      H        0.20990    0.82260    0.91040    1.000
    C61      C        0.12608    0.92450    0.90420    1.000
    C62      C        0.08441    0.98200    0.86610    1.000
    H35      H        0.09440    0.03580    0.83820    1.000
    C63      C        0.02843    0.95990    0.86940    1.000
    H36      H        0.00060    0.99800    0.83770    1.000
    C64      C        0.01360    0.88150    0.91950    1.000
    C65      C        0.05787    0.82740    0.95790    1.000
    H37      H        0.04860    0.77380    0.99000    1.000
    C66      C        0.95352    0.85250    0.92750    1.000
    C67      C        0.19030    0.63140    0.85030    1.000
    H38      H        0.19930    0.68670    0.84520    1.000
    C68      C        0.13340    0.60940    0.83880    1.000
    H39      H        0.10540    0.64870    0.82300    1.000
    C69      C        0.12012    0.52900    0.85130    1.000
    H40      H        0.08250    0.51280    0.84470    1.000
    C70      C        0.16268    0.47020    0.87410    1.000
    C71      C        0.21899    0.49880    0.87850    1.000
    C72      C        0.15190    0.38480    0.88400    1.000
    H41      H        0.11480    0.36610    0.87890    1.000
    C73      C        0.19430    0.33110    0.90030    1.000
    H42      H        0.18600    0.27570    0.91080    1.000
    C74      C        0.25290    0.35740    0.90210    1.000
    C75      C        0.26515    0.44060    0.89450    1.000
    C76      C        0.29770    0.30380    0.91770    1.000
    H43      H        0.29080    0.24800    0.92440    1.000
    C77      C        0.35220    0.33230    0.92350    1.000
    H44      H        0.38250    0.29640    0.93490    1.000
    C78      C        0.36140    0.41800    0.91170    1.000
    H45      H        0.39830    0.43780    0.91490    1.000
    Mn4      Mn       0.67444    0.38930    0.38490    1.000
    N10      N        0.88730    0.15290    0.45190    1.000
    N11      N        0.76761    0.42159    0.36800    1.000
    N12      N        0.68130    0.52928    0.39610    1.000
    O19      O        0.70097    0.26030    0.38590    1.000
    O20      O        0.62695    0.17748    0.41000    1.000
    H46      H        0.60940    0.22070    0.41140    1.000
    O21      O        0.83028    0.86910    0.21540    1.000
    O22      O        0.83420    0.87150    0.55080    1.000
    O23      O        0.08486    0.09869    0.37730    1.000
    O24      O        0.05410    0.22055    0.48730    1.000
    C79      C        0.68050    0.19240    0.39670    1.000
    C80      C        0.71681    0.11694    0.39140    1.000
    C81      C        0.69304    0.03910    0.37730    1.000
    H47      H        0.65400    0.03270    0.37010    1.000
    C82      C        0.72825    0.97190    0.37420    1.000
    H48      H        0.71260    0.91990    0.36550    1.000
    C83      C        0.78685    0.98031    0.38390    1.000
    C84      C        0.82037    0.90150    0.38290    1.000
    C85      C        0.81151    0.05880    0.39800    1.000
    C86      C        0.77483    0.12510    0.40120    1.000
    H49      H        0.79010    0.17740    0.41040    1.000
    C87      C        0.87392    0.07550    0.40420    1.000
    C88      C        0.91559    0.01800    0.36610    1.000
    H50      H        0.90560    0.96420    0.33820    1.000
    C89      C        0.97157    0.04010    0.36940    1.000
    H51      H        0.99940    0.00200    0.33770    1.000
    C90      C        0.98640    0.11850    0.41950    1.000
    C91      C        0.94213    0.17260    0.45790    1.000
    H52      H        0.95140    0.22620    0.49000    1.000
    C92      C        0.04648    0.14750    0.42750    1.000
    C93      C        0.80970    0.36860    0.35030    1.000
    H53      H        0.80070    0.31330    0.34520    1.000
    C94      C        0.86660    0.39060    0.33880    1.000
    H54      H        0.89460    0.35130    0.32300    1.000
    C95      C        0.87988    0.47100    0.35130    1.000
    H55      H        0.91750    0.48720    0.34470    1.000
    C96      C        0.83732    0.52980    0.37410    1.000
    C97      C        0.78101    0.50120    0.37850    1.000
    C98      C        0.84810    0.61520    0.38400    1.000
    H56      H        0.88520    0.63390    0.37890    1.000
    C99      C        0.80570    0.66890    0.40030    1.000
    H57      H        0.81400    0.72430    0.41080    1.000
    C100     C        0.74710    0.64260    0.40210    1.000
    C101     C        0.73485    0.55940    0.39450    1.000
    C102     C        0.70230    0.69620    0.41770    1.000
    H58      H        0.70920    0.75200    0.42440    1.000
    C103     C        0.64780    0.66770    0.42350    1.000
    H59      H        0.61750    0.70360    0.43490    1.000
    C104     C        0.63860    0.58200    0.41170    1.000
    H60      H        0.60170    0.56220    0.41490    1.000
