# CIF file generated by openbabel 3.1.0, see https://openbabel.org
data_I
_chemical_name_common 'image0'
_cell_length_a 10.3848
_cell_length_b 8.342
_cell_length_c 10.5774
_cell_angle_alpha 90
_cell_angle_beta 90
_cell_angle_gamma 90
_space_group_name_H-M_alt 'P 1'
_space_group_name_Hall 'P 1'
loop_
    _symmetry_equiv_pos_as_xyz
    x,y,z
loop_
    _atom_site_label
    _atom_site_type_symbol
    _atom_site_fract_x
    _atom_site_fract_y
    _atom_site_fract_z
    _atom_site_occupancy
    P1       P        0.16780    0.06730    0.37310    1.000
    O1       O        0.27080    0.07270    0.27100    1.000
    O2       O        0.18840    0.93060    0.46300    1.000
    O3       O        0.03170    0.06880    0.31720    1.000
    H1       H        0.55630    0.33280    0.91070    1.000
    H2       H        0.30060    0.15240    0.59960    1.000
    P2       P        0.33220    0.93270    0.87310    1.000
    O4       O        0.22920    0.92730    0.77100    1.000
    O5       O        0.31160    0.06940    0.96300    1.000
    O6       O        0.46830    0.93120    0.81720    1.000
    H3       H        0.94370    0.66720    0.41070    1.000
    H4       H        0.19940    0.84760    0.09960    1.000
    P3       P        0.83220    0.56730    0.62690    1.000
    O7       O        0.72920    0.57270    0.72900    1.000
    O8       O        0.81160    0.43060    0.53700    1.000
    O9       O        0.96830    0.56880    0.68280    1.000
    H5       H        0.44370    0.83280    0.08930    1.000
    H6       H        0.69940    0.65240    0.40040    1.000
    P4       P        0.66780    0.43270    0.12690    1.000
    O10      O        0.77080    0.42730    0.22900    1.000
    O11      O        0.68840    0.56940    0.03700    1.000
    O12      O        0.53170    0.43120    0.18280    1.000
    H7       H        0.05630    0.16720    0.58930    1.000
    H8       H        0.80060    0.34760    0.90040    1.000
    P5       P        0.83220    0.93270    0.62690    1.000
    O13      O        0.72920    0.92730    0.72900    1.000
    O14      O        0.81160    0.06940    0.53700    1.000
    O15      O        0.96830    0.93120    0.68280    1.000
    H9       H        0.44370    0.66720    0.08930    1.000
    H10      H        0.69940    0.84760    0.40040    1.000
    P6       P        0.66780    0.06730    0.12690    1.000
    O16      O        0.77080    0.07270    0.22900    1.000
    O17      O        0.68840    0.93060    0.03700    1.000
    O18      O        0.53170    0.06880    0.18280    1.000
    H11      H        0.05630    0.33280    0.58930    1.000
    H12      H        0.80060    0.15240    0.90040    1.000
    P7       P        0.16780    0.43270    0.37310    1.000
    O19      O        0.27080    0.42730    0.27100    1.000
    O20      O        0.18840    0.56940    0.46300    1.000
    O21      O        0.03170    0.43120    0.31720    1.000
    H13      H        0.55630    0.16720    0.91070    1.000
    H14      H        0.30060    0.34760    0.59960    1.000
    P8       P        0.33220    0.56730    0.87310    1.000
    O22      O        0.22920    0.57270    0.77100    1.000
    O23      O        0.31160    0.43060    0.96300    1.000
    O24      O        0.46830    0.56880    0.81720    1.000
    H15      H        0.94370    0.83280    0.41070    1.000
    H16      H        0.19940    0.65240    0.09960    1.000
    Sm1      Sm       0.36075    0.25000    0.12059    1.000
    O25      O        0.05770    0.25000    0.54240    1.000
    C1       C        0.17940    0.25000    0.46700    1.000
    C2       C        0.29800    0.25000    0.55200    1.000
    H17      H        0.37410    0.25000    0.50020    1.000
    Sm2      Sm       0.13925    0.75000    0.62059    1.000
    O26      O        0.44230    0.75000    0.04240    1.000
    C3       C        0.32060    0.75000    0.96700    1.000
    C4       C        0.20200    0.75000    0.05200    1.000
    H18      H        0.12590    0.75000    0.00020    1.000
    Sm3      Sm       0.63925    0.75000    0.87941    1.000
    O27      O        0.94230    0.75000    0.45760    1.000
    C5       C        0.82060    0.75000    0.53300    1.000
    C6       C        0.70200    0.75000    0.44800    1.000
    H19      H        0.62590    0.75000    0.49980    1.000
    Sm4      Sm       0.86075    0.25000    0.37941    1.000
    O28      O        0.55770    0.25000    0.95760    1.000
    C7       C        0.67940    0.25000    0.03300    1.000
    C8       C        0.79800    0.25000    0.94800    1.000
    H20      H        0.87410    0.25000    0.99980    1.000
