# CIF file generated by openbabel 3.1.0, see https://openbabel.org
data_I
_chemical_name_common 'image0'
_cell_length_a 17.116
_cell_length_b 22.8
_cell_length_c 22.641
_cell_angle_alpha 90
_cell_angle_beta 90
_cell_angle_gamma 90
_space_group_name_H-M_alt 'P 1'
_space_group_name_Hall 'P 1'
loop_
    _symmetry_equiv_pos_as_xyz
    x,y,z
loop_
    _atom_site_label
    _atom_site_type_symbol
    _atom_site_fract_x
    _atom_site_fract_y
    _atom_site_fract_z
    _atom_site_occupancy
    Ni1      Ni       0.47401    0.25790    0.00925    1.000
    Ni2      Ni       0.49687    0.50790    0.25911    1.000
    N1       N        0.46120    0.17021    0.03430    1.000
    N2       N        0.49155    0.23124    0.92239    1.000
    N3       N        0.48589    0.34500    0.98136    1.000
    N4       N        0.45850    0.28468    0.09599    1.000
    N5       N        0.35422    0.26240    0.99310    1.000
    N6       N        0.59402    0.25377    0.02351    1.000
    N7       N        0.48904    0.42048    0.23318    1.000
    N8       N        0.49784    0.59467    0.28561    1.000
    N9       N        0.48470    0.48161    0.34689    1.000
    N10      N        0.50864    0.53252    0.17053    1.000
    N11      N        0.37718    0.51345    0.24793    1.000
    N12      N        0.61909    0.50218    0.26463    1.000
    N13      N        0.22900    0.25630    0.94070    1.000
    C1       C        0.29330    0.26030    0.97180    1.000
    C2       C        0.65940    0.25490    0.03670    1.000
    N14      N        0.22810    0.22850    0.94900    1.000
    C3       C        0.29240    0.24610    0.97520    1.000
    C4       C        0.65780    0.24240    0.03210    1.000
    N15      N        0.22820    0.28510    0.94680    1.000
    C5       C        0.29320    0.27380    0.97600    1.000
    C6       C        0.65860    0.26910    0.03400    1.000
    N16      N        0.74880    0.45480    0.24840    1.000
    C7       C        0.68160    0.48100    0.25750    1.000
    C8       C        0.68260    0.52150    0.25840    1.000
    N17      N        0.52162    0.19490    0.82259    1.000
    N18      N        0.45124    0.32250    0.19749    1.000
    N19      N        0.45139    0.06499    0.05816    1.000
    N20      N        0.47993    0.44196    0.93463    1.000
    C9       C        0.45843    0.12154    0.04842    1.000
    C10      C        0.50465    0.21137    0.87654    1.000
    C11      C        0.48447    0.38886    0.95658    1.000
    C12      C        0.45681    0.30498    0.14258    1.000
    C13      C        0.47214    0.37553    0.21347    1.000
    C14      C        0.51022    0.14055    0.80575    1.000
    C15      C        0.47024    0.04261    0.10977    1.000
    C16      C        0.48744    0.45213    0.87802    1.000
    C17      C        0.31582    0.50702    0.22915    1.000
    Ni3      Ni       0.02599    0.74210    0.00925    1.000
    Ni4      Ni       0.00313    0.49210    0.25911    1.000
    N21      N        0.03880    0.82979    0.03430    1.000
    N22      N        0.00845    0.76876    0.92239    1.000
    N23      N        0.01411    0.65500    0.98136    1.000
    N24      N        0.04150    0.71532    0.09599    1.000
    N25      N        0.14578    0.73760    0.99310    1.000
    N26      N        0.90598    0.74623    0.02351    1.000
    N27      N        0.01096    0.57952    0.23318    1.000
    N28      N        0.00216    0.40533    0.28561    1.000
    N29      N        0.01530    0.51839    0.34689    1.000
    N30      N        0.99136    0.46748    0.17053    1.000
    N31      N        0.12282    0.48655    0.24793    1.000
    N32      N        0.88091    0.49782    0.26463    1.000
    N33      N        0.27100    0.74370    0.94070    1.000
    C18      C        0.20670    0.73970    0.97180    1.000
    C19      C        0.84060    0.74510    0.03670    1.000
    N34      N        0.27190    0.77150    0.94900    1.000
    C20      C        0.20760    0.75390    0.97520    1.000
    C21      C        0.84220    0.75760    0.03210    1.000
    N35      N        0.27180    0.71490    0.94680    1.000
    C22      C        0.20680    0.72620    0.97600    1.000
    C23      C        0.84140    0.73090    0.03400    1.000
    N36      N        0.75120    0.54520    0.24840    1.000
    C24      C        0.81840    0.51900    0.25750    1.000
    C25      C        0.81740    0.47850    0.25840    1.000
    N37      N        0.97838    0.80510    0.82259    1.000
    N38      N        0.04876    0.67750    0.19749    1.000
    N39      N        0.04861    0.93501    0.05816    1.000
    N40      N        0.02007    0.55804    0.93463    1.000
    C26      C        0.04157    0.87846    0.04842    1.000
    C27      C        0.99535    0.78863    0.87654    1.000
    C28      C        0.01553    0.61114    0.95658    1.000
    C29      C        0.04319    0.69502    0.14258    1.000
    C30      C        0.02786    0.62447    0.21347    1.000
    C31      C        0.98978    0.85945    0.80575    1.000
    C32      C        0.02976    0.95739    0.10977    1.000
    C33      C        0.01256    0.54787    0.87802    1.000
    C34      C        0.18418    0.49298    0.22915    1.000
    Ni5      Ni       0.02599    0.75790    0.49075    1.000
    Ni6      Ni       0.00313    0.00790    0.24089    1.000
    N41      N        0.03880    0.67021    0.46570    1.000
    N42      N        0.00845    0.73124    0.57761    1.000
    N43      N        0.01411    0.84500    0.51864    1.000
    N44      N        0.04150    0.78468    0.40401    1.000
    N45      N        0.14578    0.76240    0.50690    1.000
    N46      N        0.90598    0.75377    0.47649    1.000
    N47      N        0.01096    0.92048    0.26682    1.000
    N48      N        0.00216    0.09467    0.21439    1.000
    N49      N        0.01530    0.98161    0.15311    1.000
    N50      N        0.99136    0.03252    0.32947    1.000
    N51      N        0.12282    0.01345    0.25207    1.000
    N52      N        0.88091    0.00218    0.23537    1.000
    N53      N        0.27100    0.75630    0.55930    1.000
    C35      C        0.20670    0.76030    0.52820    1.000
    C36      C        0.84060    0.75490    0.46330    1.000
    N54      N        0.27190    0.72850    0.55100    1.000
    C37      C        0.20760    0.74610    0.52480    1.000
    C38      C        0.84220    0.74240    0.46790    1.000
    N55      N        0.27180    0.78510    0.55320    1.000
    C39      C        0.20680    0.77380    0.52400    1.000
    C40      C        0.84140    0.76910    0.46600    1.000
    N56      N        0.75120    0.95480    0.25160    1.000
    C41      C        0.81840    0.98100    0.24250    1.000
    C42      C        0.81740    0.02150    0.24160    1.000
    N57      N        0.97838    0.69490    0.67741    1.000
    N58      N        0.04876    0.82250    0.30251    1.000
    N59      N        0.04861    0.56499    0.44184    1.000
    N60      N        0.02007    0.94196    0.56537    1.000
    C43      C        0.04157    0.62154    0.45158    1.000
    C44      C        0.99535    0.71137    0.62346    1.000
    C45      C        0.01553    0.88886    0.54342    1.000
    C46      C        0.04319    0.80498    0.35742    1.000
    C47      C        0.02786    0.87553    0.28653    1.000
    C48      C        0.98978    0.64055    0.69425    1.000
    C49      C        0.02976    0.54261    0.39023    1.000
    C50      C        0.01256    0.95213    0.62198    1.000
    C51      C        0.18418    0.00702    0.27085    1.000
    Ni7      Ni       0.47401    0.24210    0.49075    1.000
    Ni8      Ni       0.49687    0.99210    0.24089    1.000
    N61      N        0.46120    0.32979    0.46570    1.000
    N62      N        0.49155    0.26876    0.57761    1.000
    N63      N        0.48589    0.15500    0.51864    1.000
    N64      N        0.45850    0.21532    0.40401    1.000
    N65      N        0.35422    0.23760    0.50690    1.000
    N66      N        0.59402    0.24623    0.47649    1.000
    N67      N        0.48904    0.07952    0.26682    1.000
    N68      N        0.49784    0.90533    0.21439    1.000
    N69      N        0.48470    0.01839    0.15311    1.000
    N70      N        0.50864    0.96748    0.32947    1.000
    N71      N        0.37718    0.98655    0.25207    1.000
    N72      N        0.61909    0.99782    0.23537    1.000
    N73      N        0.22900    0.24370    0.55930    1.000
    C52      C        0.29330    0.23970    0.52820    1.000
    C53      C        0.65940    0.24510    0.46330    1.000
    N74      N        0.22810    0.27150    0.55100    1.000
    C54      C        0.29240    0.25390    0.52480    1.000
    C55      C        0.65780    0.25760    0.46790    1.000
    N75      N        0.22820    0.21490    0.55320    1.000
    C56      C        0.29320    0.22620    0.52400    1.000
    C57      C        0.65860    0.23090    0.46600    1.000
    N76      N        0.74880    0.04520    0.25160    1.000
    C58      C        0.68160    0.01900    0.24250    1.000
    C59      C        0.68260    0.97850    0.24160    1.000
    N77      N        0.52162    0.30510    0.67741    1.000
    N78      N        0.45124    0.17750    0.30251    1.000
    N79      N        0.45139    0.43501    0.44184    1.000
    N80      N        0.47993    0.05804    0.56537    1.000
    C60      C        0.45843    0.37846    0.45158    1.000
    C61      C        0.50465    0.28863    0.62346    1.000
    C62      C        0.48447    0.11114    0.54342    1.000
    C63      C        0.45681    0.19502    0.35742    1.000
    C64      C        0.47214    0.12447    0.28653    1.000
    C65      C        0.51022    0.35945    0.69425    1.000
    C66      C        0.47024    0.45739    0.39023    1.000
    C67      C        0.48744    0.04787    0.62198    1.000
    C68      C        0.31582    0.99298    0.27085    1.000
    Ni9      Ni       0.52599    0.74210    0.99075    1.000
    Ni10     Ni       0.50313    0.49210    0.74089    1.000
    N81      N        0.53880    0.82979    0.96570    1.000
    N82      N        0.50845    0.76876    0.07761    1.000
    N83      N        0.51411    0.65500    0.01864    1.000
    N84      N        0.54150    0.71532    0.90401    1.000
    N85      N        0.64578    0.73760    0.00690    1.000
    N86      N        0.40598    0.74623    0.97649    1.000
    N87      N        0.51096    0.57952    0.76682    1.000
    N88      N        0.50216    0.40533    0.71439    1.000
    N89      N        0.51530    0.51839    0.65311    1.000
    N90      N        0.49136    0.46748    0.82947    1.000
    N91      N        0.62282    0.48655    0.75207    1.000
    N92      N        0.38091    0.49782    0.73537    1.000
    N93      N        0.77100    0.74370    0.05930    1.000
    C69      C        0.70670    0.73970    0.02820    1.000
    C70      C        0.34060    0.74510    0.96330    1.000
    N94      N        0.77190    0.77150    0.05100    1.000
    C71      C        0.70760    0.75390    0.02480    1.000
    C72      C        0.34220    0.75760    0.96790    1.000
    N95      N        0.77180    0.71490    0.05320    1.000
    C73      C        0.70680    0.72620    0.02400    1.000
    C74      C        0.34140    0.73090    0.96600    1.000
    N96      N        0.25120    0.54520    0.75160    1.000
    C75      C        0.31840    0.51900    0.74250    1.000
    C76      C        0.31740    0.47850    0.74160    1.000
    N97      N        0.47838    0.80510    0.17741    1.000
    N98      N        0.54876    0.67750    0.80251    1.000
    N99      N        0.54861    0.93501    0.94184    1.000
    N100     N        0.52007    0.55804    0.06537    1.000
    C77      C        0.54157    0.87846    0.95158    1.000
    C78      C        0.49535    0.78863    0.12346    1.000
    C79      C        0.51553    0.61114    0.04342    1.000
    C80      C        0.54319    0.69502    0.85742    1.000
    C81      C        0.52786    0.62447    0.78653    1.000
    C82      C        0.48978    0.85945    0.19425    1.000
    C83      C        0.52976    0.95739    0.89023    1.000
    C84      C        0.51256    0.54787    0.12198    1.000
    C85      C        0.68418    0.49298    0.77085    1.000
    Ni11     Ni       0.97401    0.25790    0.99075    1.000
    Ni12     Ni       0.99687    0.50790    0.74089    1.000
    N101     N        0.96120    0.17021    0.96570    1.000
    N102     N        0.99155    0.23124    0.07761    1.000
    N103     N        0.98589    0.34500    0.01864    1.000
    N104     N        0.95850    0.28468    0.90401    1.000
    N105     N        0.85422    0.26240    0.00690    1.000
    N106     N        0.09402    0.25377    0.97649    1.000
    N107     N        0.98904    0.42048    0.76682    1.000
    N108     N        0.99784    0.59467    0.71439    1.000
    N109     N        0.98470    0.48161    0.65311    1.000
    N110     N        0.00864    0.53252    0.82947    1.000
    N111     N        0.87718    0.51345    0.75207    1.000
    N112     N        0.11909    0.50218    0.73537    1.000
    N113     N        0.72900    0.25630    0.05930    1.000
    C86      C        0.79330    0.26030    0.02820    1.000
    C87      C        0.15940    0.25490    0.96330    1.000
    N114     N        0.72810    0.22850    0.05100    1.000
    C88      C        0.79240    0.24610    0.02480    1.000
    C89      C        0.15780    0.24240    0.96790    1.000
    N115     N        0.72820    0.28510    0.05320    1.000
    C90      C        0.79320    0.27380    0.02400    1.000
    C91      C        0.15860    0.26910    0.96600    1.000
    N116     N        0.24880    0.45480    0.75160    1.000
    C92      C        0.18160    0.48100    0.74250    1.000
    C93      C        0.18260    0.52150    0.74160    1.000
    N117     N        0.02162    0.19490    0.17741    1.000
    N118     N        0.95124    0.32250    0.80251    1.000
    N119     N        0.95139    0.06499    0.94184    1.000
    N120     N        0.97993    0.44196    0.06537    1.000
    C94      C        0.95843    0.12154    0.95158    1.000
    C95      C        0.00465    0.21137    0.12346    1.000
    C96      C        0.98447    0.38886    0.04342    1.000
    C97      C        0.95681    0.30498    0.85742    1.000
    C98      C        0.97214    0.37553    0.78653    1.000
    C99      C        0.01022    0.14055    0.19425    1.000
    C100     C        0.97024    0.04261    0.89023    1.000
    C101     C        0.98744    0.45213    0.12198    1.000
    C102     C        0.81582    0.50702    0.77085    1.000
    Ni13     Ni       0.97401    0.24210    0.50924    1.000
    Ni14     Ni       0.99687    0.99210    0.75911    1.000
    N121     N        0.96120    0.32979    0.53430    1.000
    N122     N        0.99155    0.26876    0.42239    1.000
    N123     N        0.98589    0.15500    0.48136    1.000
    N124     N        0.95850    0.21532    0.59599    1.000
    N125     N        0.85422    0.23760    0.49310    1.000
    N126     N        0.09402    0.24623    0.52351    1.000
    N127     N        0.98904    0.07952    0.73318    1.000
    N128     N        0.99784    0.90533    0.78561    1.000
    N129     N        0.98470    0.01839    0.84689    1.000
    N130     N        0.00864    0.96748    0.67053    1.000
    N131     N        0.87718    0.98655    0.74793    1.000
    N132     N        0.11909    0.99782    0.76463    1.000
    N133     N        0.72900    0.24370    0.44070    1.000
    C103     C        0.79330    0.23970    0.47180    1.000
    C104     C        0.15940    0.24510    0.53670    1.000
    N134     N        0.72810    0.27150    0.44900    1.000
    C105     C        0.79240    0.25390    0.47520    1.000
    C106     C        0.15780    0.25760    0.53210    1.000
    N135     N        0.72820    0.21490    0.44680    1.000
    C107     C        0.79320    0.22620    0.47600    1.000
    C108     C        0.15860    0.23090    0.53400    1.000
    N136     N        0.24880    0.04520    0.74840    1.000
    C109     C        0.18160    0.01900    0.75750    1.000
    C110     C        0.18260    0.97850    0.75840    1.000
    N137     N        0.02162    0.30510    0.32259    1.000
    N138     N        0.95124    0.17750    0.69749    1.000
    N139     N        0.95139    0.43501    0.55816    1.000
    N140     N        0.97993    0.05804    0.43463    1.000
    C111     C        0.95843    0.37846    0.54842    1.000
    C112     C        0.00465    0.28863    0.37654    1.000
    C113     C        0.98447    0.11114    0.45658    1.000
    C114     C        0.95681    0.19502    0.64258    1.000
    C115     C        0.97214    0.12447    0.71347    1.000
    C116     C        0.01022    0.35945    0.30575    1.000
    C117     C        0.97024    0.45739    0.60977    1.000
    C118     C        0.98744    0.04787    0.37802    1.000
    C119     C        0.81582    0.99298    0.72915    1.000
    Ni15     Ni       0.52599    0.75790    0.50924    1.000
    Ni16     Ni       0.50313    0.00790    0.75911    1.000
    N141     N        0.53880    0.67021    0.53430    1.000
    N142     N        0.50845    0.73124    0.42239    1.000
    N143     N        0.51411    0.84500    0.48136    1.000
    N144     N        0.54150    0.78468    0.59599    1.000
    N145     N        0.64578    0.76240    0.49310    1.000
    N146     N        0.40598    0.75377    0.52351    1.000
    N147     N        0.51096    0.92048    0.73318    1.000
    N148     N        0.50216    0.09467    0.78561    1.000
    N149     N        0.51530    0.98161    0.84689    1.000
    N150     N        0.49136    0.03252    0.67053    1.000
    N151     N        0.62282    0.01345    0.74793    1.000
    N152     N        0.38091    0.00218    0.76463    1.000
    N153     N        0.77100    0.75630    0.44070    1.000
    C120     C        0.70670    0.76030    0.47180    1.000
    C121     C        0.34060    0.75490    0.53670    1.000
    N154     N        0.77190    0.72850    0.44900    1.000
    C122     C        0.70760    0.74610    0.47520    1.000
    C123     C        0.34220    0.74240    0.53210    1.000
    N155     N        0.77180    0.78510    0.44680    1.000
    C124     C        0.70680    0.77380    0.47600    1.000
    C125     C        0.34140    0.76910    0.53400    1.000
    N156     N        0.25120    0.95480    0.74840    1.000
    C126     C        0.31840    0.98100    0.75750    1.000
    C127     C        0.31740    0.02150    0.75840    1.000
    N157     N        0.47838    0.69490    0.32259    1.000
    N158     N        0.54876    0.82250    0.69749    1.000
    N159     N        0.54861    0.56499    0.55816    1.000
    N160     N        0.52007    0.94196    0.43463    1.000
    C128     C        0.54157    0.62154    0.54842    1.000
    C129     C        0.49535    0.71137    0.37654    1.000
    C130     C        0.51553    0.88886    0.45658    1.000
    C131     C        0.54319    0.80498    0.64258    1.000
    C132     C        0.52786    0.87553    0.71347    1.000
    C133     C        0.48978    0.64055    0.30575    1.000
    C134     C        0.52976    0.54261    0.60977    1.000
    C135     C        0.51256    0.95213    0.37802    1.000
    C136     C        0.68418    0.00702    0.72915    1.000
    N161     N        0.25000    0.50000    0.20190    1.000
    N162     N        0.25000    0.00000    0.29810    1.000
    N163     N        0.75000    0.50000    0.79810    1.000
    N164     N        0.75000    0.00000    0.70190    1.000
