# CIF file generated by openbabel 3.1.0, see https://openbabel.org
data_I
_chemical_name_common 'image0'
_cell_length_a 36.3966
_cell_length_b 36.3966
_cell_length_c 23.9655
_cell_angle_alpha 90
_cell_angle_beta 90
_cell_angle_gamma 120
_space_group_name_H-M_alt 'P 1'
_space_group_name_Hall 'P 1'
loop_
    _symmetry_equiv_pos_as_xyz
    x,y,z
loop_
    _atom_site_label
    _atom_site_type_symbol
    _atom_site_fract_x
    _atom_site_fract_y
    _atom_site_fract_z
    _atom_site_occupancy
    In1      In       0.13301    0.77356    0.72941    1.000
    Co1      Co       0.21551    0.85212    0.81670    1.000
    O1       O        0.21862    0.79750    0.80290    1.000
    O2       O        0.11740    0.75098    0.63790    1.000
    O3       O        0.30804    0.06918    0.27154    1.000
    O4       O        0.18840    0.76884    0.72092    1.000
    O5       O        0.26901    0.06400    0.19639    1.000
    O6       O        0.91240    0.69470    0.17140    1.000
    O7       O        0.14795    0.81750    0.65517    1.000
    O8       O        0.15682    0.82846    0.77786    1.000
    O9       O        0.95410    0.72770    0.10070    1.000
    C1       C        0.01020    0.76470    0.28610    1.000
    H1       H        0.00390    0.76470    0.32380    1.000
    C2       C        0.08870    0.80510    0.35920    1.000
    H2       H        0.06680    0.77970    0.37320    1.000
    C3       C        0.05990    0.78530    0.20950    1.000
    H3       H        0.08760    0.79880    0.19610    1.000
    C4       C        0.18340    0.92700    0.29870    1.000
    C5       C        0.05260    0.78760    0.26480    1.000
    C6       C        0.11930    0.85430    0.28400    1.000
    H4       H        0.11900    0.86120    0.24670    1.000
    C7       C        0.12140    0.83170    0.39480    1.000
    C8       C        0.15330    0.87220    0.37500    1.000
    H5       H        0.17480    0.89080    0.39870    1.000
    C9       C        0.08740    0.81500    0.30380    1.000
    C10      C        0.25420    0.98670    0.30220    1.000
    H6       H        0.28160    0.99950    0.31630    1.000
    C11      C        0.30080    0.74830    0.78090    1.000
    H7       H        0.32570    0.75850    0.80160    1.000
    C12      C        0.25223    0.70100    0.71390    1.000
    H8       H        0.24350    0.67820    0.68960    1.000
    C13      C        0.22410    0.94880    0.32270    1.000
    H9       H        0.23040    0.93710    0.35310    1.000
    C14      C        0.15170    0.88360    0.31900    1.000
    C15      C        0.27700    0.76870    0.78560    1.000
    H10      H        0.28510    0.79090    0.81090    1.000
    C16      C        0.21480    0.77640    0.75850    1.000
    C17      C        0.17440    0.94680    0.25680    1.000
    H11      H        0.14720    0.93350    0.24180    1.000
    C18      C        0.28930    0.64530    0.74470    1.000
    C19      C        0.27676    0.05030    0.24120    1.000
    C20      C        0.31121    0.68911    0.74530    1.000
    C21      C        0.28892    0.71380    0.74700    1.000
    C22      C        0.20416    0.98580    0.23620    1.000
    H12      H        0.19750    0.99800    0.20670    1.000
    C23      C        0.24406    0.00660    0.25970    1.000
    C24      C        0.22924    0.72170    0.71690    1.000
    H13      H        0.20520    0.71280    0.69500    1.000
    C25      C        0.24220    0.75630    0.75330    1.000
    C26      C        0.11170    0.77840    0.46900    1.000
    H14      H        0.10250    0.75700    0.44240    1.000
    C27      C        0.02510    0.76220    0.17150    1.000
    H15      H        0.03040    0.76170    0.13360    1.000
    C28      C        0.97800    0.74180    0.24570    1.000
    H16      H        0.95020    0.72620    0.25820    1.000
    C29      C        0.11290    0.76800    0.52440    1.000
    H17      H        0.10250    0.73990    0.53490    1.000
    C30      C        0.12380    0.81930    0.45120    1.000
    C31      C        0.14280    0.83890    0.55040    1.000
    H18      H        0.15330    0.85920    0.57870    1.000
    C32      C        0.13300    0.78700    0.62530    1.000
    C33      C        0.14130    0.85100    0.49050    1.000
    H19      H        0.15190    0.87920    0.48040    1.000
    C34      C        0.98490    0.74120    0.19080    1.000
    C35      C        0.12860    0.79810    0.56100    1.000
    C36      C        0.94710    0.72100    0.14890    1.000
    Co2      Co       0.20320    0.82320    0.83980    1.000
    In2      In       0.12580    0.75455    0.74073    1.000
    In3      In       0.79967    0.10689    0.06274    1.000
    Co3      Co       0.88218    0.18545    0.15003    1.000
    O10      O        0.88529    0.13083    0.13623    1.000
    O11      O        0.78407    0.08431    0.97123    1.000
    O12      O        0.97471    0.40251    0.60487    1.000
    O13      O        0.85507    0.10217    0.05425    1.000
    O14      O        0.93568    0.39733    0.52972    1.000
    O15      O        0.57907    0.02803    0.50473    1.000
    O16      O        0.81462    0.15083    0.98850    1.000
    O17      O        0.82349    0.16179    0.11119    1.000
    O18      O        0.62077    0.06103    0.43403    1.000
    C37      C        0.67687    0.09803    0.61943    1.000
    H20      H        0.67057    0.09803    0.65713    1.000
    C38      C        0.75537    0.13843    0.69253    1.000
    H21      H        0.73347    0.11303    0.70653    1.000
    C39      C        0.72657    0.11863    0.54283    1.000
    H22      H        0.75427    0.13213    0.52943    1.000
    C40      C        0.85007    0.26033    0.63203    1.000
    C41      C        0.71927    0.12093    0.59813    1.000
    C42      C        0.78597    0.18763    0.61733    1.000
    H23      H        0.78567    0.19453    0.58003    1.000
    C43      C        0.78807    0.16503    0.72813    1.000
    C44      C        0.81997    0.20553    0.70833    1.000
    H24      H        0.84147    0.22413    0.73203    1.000
    C45      C        0.75407    0.14833    0.63713    1.000
    C46      C        0.92087    0.32003    0.63553    1.000
    H25      H        0.94827    0.33283    0.64963    1.000
    C47      C        0.96747    0.08163    0.11423    1.000
    H26      H        0.99237    0.09183    0.13493    1.000
    C48      C        0.91890    0.03433    0.04723    1.000
    H27      H        0.91017    0.01153    0.02293    1.000
    C49      C        0.89077    0.28213    0.65603    1.000
    H28      H        0.89707    0.27043    0.68643    1.000
    C50      C        0.81837    0.21693    0.65233    1.000
    C51      C        0.94367    0.10203    0.11893    1.000
    H29      H        0.95177    0.12423    0.14423    1.000
    C52      C        0.88147    0.10973    0.09183    1.000
    C53      C        0.84107    0.28013    0.59013    1.000
    H30      H        0.81387    0.26683    0.57513    1.000
    C54      C        0.95597    0.97863    0.07803    1.000
    C55      C        0.94343    0.38363    0.57453    1.000
    C56      C        0.97788    0.02244    0.07863    1.000
    C57      C        0.95559    0.04713    0.08033    1.000
    C58      C        0.87083    0.31913    0.56953    1.000
    H31      H        0.86417    0.33133    0.54003    1.000
    C59      C        0.91073    0.33993    0.59303    1.000
    C60      C        0.89591    0.05503    0.05023    1.000
    H32      H        0.87187    0.04613    0.02833    1.000
    C61      C        0.90887    0.08963    0.08663    1.000
    C62      C        0.77837    0.11173    0.80233    1.000
    H33      H        0.76917    0.09033    0.77573    1.000
    C63      C        0.69177    0.09553    0.50483    1.000
    H34      H        0.69707    0.09503    0.46693    1.000
    C64      C        0.64467    0.07513    0.57903    1.000
    H35      H        0.61687    0.05953    0.59153    1.000
    C65      C        0.77957    0.10133    0.85773    1.000
    H36      H        0.76917    0.07323    0.86823    1.000
    C66      C        0.79047    0.15263    0.78453    1.000
    C67      C        0.80947    0.17223    0.88373    1.000
    H37      H        0.81997    0.19253    0.91203    1.000
    C68      C        0.79967    0.12033    0.95863    1.000
    C69      C        0.80797    0.18433    0.82383    1.000
    H38      H        0.81857    0.21253    0.81373    1.000
    C70      C        0.65157    0.07453    0.52413    1.000
    C71      C        0.79527    0.13143    0.89433    1.000
    C72      C        0.61377    0.05433    0.48223    1.000
    Co4      Co       0.86987    0.15653    0.17313    1.000
    In4      In       0.79247    0.08788    0.07406    1.000
    In5      In       0.46634    0.44023    0.39608    1.000
    Co5      Co       0.54884    0.51879    0.48337    1.000
    O19      O        0.55195    0.46417    0.46957    1.000
    O20      O        0.45073    0.41765    0.30457    1.000
    O21      O        0.64137    0.73585    0.93821    1.000
    O22      O        0.52173    0.43551    0.38759    1.000
    O23      O        0.60234    0.73067    0.86306    1.000
    O24      O        0.24573    0.36137    0.83807    1.000
    O25      O        0.48128    0.48417    0.32184    1.000
    O26      O        0.49015    0.49513    0.44453    1.000
    O27      O        0.28743    0.39437    0.76737    1.000
    C73      C        0.34353    0.43137    0.95277    1.000
    H39      H        0.33723    0.43137    0.99047    1.000
    C74      C        0.42203    0.47177    0.02587    1.000
    H40      H        0.40013    0.44637    0.03987    1.000
    C75      C        0.39323    0.45197    0.87617    1.000
    H41      H        0.42093    0.46547    0.86277    1.000
    C76      C        0.51673    0.59367    0.96537    1.000
    C77      C        0.38593    0.45427    0.93147    1.000
    C78      C        0.45263    0.52097    0.95067    1.000
    H42      H        0.45233    0.52787    0.91337    1.000
    C79      C        0.45473    0.49837    0.06147    1.000
    C80      C        0.48663    0.53887    0.04167    1.000
    H43      H        0.50813    0.55747    0.06537    1.000
    C81      C        0.42073    0.48167    0.97047    1.000
    C82      C        0.58753    0.65337    0.96887    1.000
    H44      H        0.61493    0.66617    0.98297    1.000
    C83      C        0.63413    0.41497    0.44757    1.000
    H45      H        0.65903    0.42517    0.46827    1.000
    C84      C        0.58556    0.36767    0.38057    1.000
    H46      H        0.57683    0.34487    0.35627    1.000
    C85      C        0.55743    0.61547    0.98937    1.000
    H47      H        0.56373    0.60377    0.01977    1.000
    C86      C        0.48503    0.55027    0.98567    1.000
    C87      C        0.61033    0.43537    0.45227    1.000
    H48      H        0.61843    0.45757    0.47757    1.000
    C88      C        0.54813    0.44307    0.42517    1.000
    C89      C        0.50773    0.61347    0.92347    1.000
    H49      H        0.48053    0.60017    0.90847    1.000
    C90      C        0.62263    0.31197    0.41137    1.000
    C91      C        0.61009    0.71697    0.90787    1.000
    C92      C        0.64454    0.35578    0.41197    1.000
    C93      C        0.62225    0.38047    0.41367    1.000
    C94      C        0.53749    0.65247    0.90287    1.000
    H50      H        0.53083    0.66467    0.87337    1.000
    C95      C        0.57739    0.67327    0.92637    1.000
    C96      C        0.56257    0.38837    0.38357    1.000
    H51      H        0.53853    0.37947    0.36167    1.000
    C97      C        0.57553    0.42297    0.41997    1.000
    C98      C        0.44503    0.44507    0.13567    1.000
    H52      H        0.43583    0.42367    0.10907    1.000
    C99      C        0.35843    0.42887    0.83817    1.000
    H53      H        0.36373    0.42837    0.80027    1.000
    C100     C        0.31133    0.40847    0.91237    1.000
    H54      H        0.28353    0.39287    0.92487    1.000
    C101     C        0.44623    0.43467    0.19107    1.000
    H55      H        0.43583    0.40657    0.20157    1.000
    C102     C        0.45713    0.48597    0.11787    1.000
    C103     C        0.47613    0.50557    0.21707    1.000
    H56      H        0.48663    0.52587    0.24537    1.000
    C104     C        0.46633    0.45367    0.29197    1.000
    C105     C        0.47463    0.51767    0.15717    1.000
    H57      H        0.48523    0.54587    0.14707    1.000
    C106     C        0.31823    0.40787    0.85747    1.000
    C107     C        0.46193    0.46477    0.22767    1.000
    C108     C        0.28043    0.38767    0.81557    1.000
    Co6      Co       0.53653    0.48987    0.50647    1.000
    In6      In       0.45913    0.42122    0.40740    1.000
    In7      In       0.22644    0.35945    0.72941    1.000
    Co7      Co       0.14788    0.36339    0.81670    1.000
    O28      O        0.20250    0.42112    0.80290    1.000
    O29      O        0.24902    0.36642    0.63790    1.000
    O30      O        0.93082    0.23886    0.27154    1.000
    O31      O        0.23116    0.41956    0.72092    1.000
    O32      O        0.93600    0.20501    0.19639    1.000
    O33      O        0.30530    0.21770    0.17140    1.000
    O34      O        0.18250    0.33045    0.65517    1.000
    O35      O        0.17154    0.32836    0.77786    1.000
    O36      O        0.27230    0.22640    0.10070    1.000
    C109     C        0.23530    0.24550    0.28610    1.000
    H58      H        0.23530    0.23920    0.32380    1.000
    C110     C        0.19490    0.28360    0.35920    1.000
    H59      H        0.22030    0.28710    0.37320    1.000
    C111     C        0.21470    0.27460    0.20950    1.000
    H60      H        0.20120    0.28880    0.19610    1.000
    C112     C        0.07300    0.25640    0.29870    1.000
    C113     C        0.21240    0.26500    0.26480    1.000
    C114     C        0.14570    0.26500    0.28400    1.000
    H61      H        0.13880    0.25780    0.24670    1.000
    C115     C        0.16830    0.28970    0.39480    1.000
    C116     C        0.12780    0.28110    0.37500    1.000
    H62      H        0.10920    0.28400    0.39870    1.000
    C117     C        0.18500    0.27240    0.30380    1.000
    C118     C        0.01330    0.26750    0.30220    1.000
    H63      H        0.00050    0.28210    0.31630    1.000
    C119     C        0.25170    0.55250    0.78090    1.000
    H64      H        0.24150    0.56720    0.80160    1.000
    C120     C        0.29900    0.55123    0.71390    1.000
    H65      H        0.32180    0.56530    0.68960    1.000
    C121     C        0.05120    0.27530    0.32270    1.000
    H66      H        0.06290    0.29330    0.35310    1.000
    C122     C        0.11640    0.26810    0.31900    1.000
    C123     C        0.23130    0.50830    0.78560    1.000
    H67      H        0.20910    0.49420    0.81090    1.000
    C124     C        0.22360    0.43840    0.75850    1.000
    C125     C        0.05320    0.22760    0.25680    1.000
    H68      H        0.06650    0.21370    0.24180    1.000
    C126     C        0.35470    0.64400    0.74470    1.000
    C127     C        0.94970    0.22646    0.24120    1.000
    C128     C        0.31089    0.62210    0.74530    1.000
    C129     C        0.28620    0.57512    0.74700    1.000
    C130     C        0.01420    0.21836    0.23620    1.000
    H69      H        0.00200    0.19950    0.20670    1.000
    C131     C        0.99340    0.23746    0.25970    1.000
    C132     C        0.27830    0.50754    0.71690    1.000
    H70      H        0.28720    0.49240    0.69500    1.000
    C133     C        0.24370    0.48590    0.75330    1.000
    C134     C        0.22160    0.33330    0.46900    1.000
    H71      H        0.24300    0.34550    0.44240    1.000
    C135     C        0.23780    0.26290    0.17150    1.000
    H72      H        0.23830    0.26870    0.13360    1.000
    C136     C        0.25820    0.23620    0.24570    1.000
    H73      H        0.27380    0.22400    0.25820    1.000
    C137     C        0.23200    0.34490    0.52440    1.000
    H74      H        0.26010    0.36260    0.53490    1.000
    C138     C        0.18070    0.30450    0.45120    1.000
    C139     C        0.16110    0.30390    0.55040    1.000
    H75      H        0.14080    0.29410    0.57870    1.000
    C140     C        0.21300    0.34600    0.62530    1.000
    C141     C        0.14900    0.29030    0.49050    1.000
    H76      H        0.12080    0.27270    0.48040    1.000
    C142     C        0.25880    0.24370    0.19080    1.000
    C143     C        0.20190    0.33050    0.56100    1.000
    C144     C        0.27900    0.22610    0.14890    1.000
    Co8      Co       0.17680    0.38000    0.83980    1.000
    In8      In       0.24545    0.37125    0.74073    1.000
    In9      In       0.89311    0.69278    0.06274    1.000
    Co9      Co       0.81455    0.69672    0.15003    1.000
    O37      O        0.86917    0.75445    0.13623    1.000
    O38      O        0.91569    0.69975    0.97123    1.000
    O39      O        0.59749    0.57219    0.60487    1.000
    O40      O        0.89783    0.75289    0.05425    1.000
    O41      O        0.60267    0.53834    0.52972    1.000
    O42      O        0.97197    0.55103    0.50473    1.000
    O43      O        0.84917    0.66378    0.98850    1.000
    O44      O        0.83821    0.66169    0.11119    1.000
    O45      O        0.93897    0.55973    0.43403    1.000
    C145     C        0.90197    0.57883    0.61943    1.000
    H77      H        0.90197    0.57253    0.65713    1.000
    C146     C        0.86157    0.61693    0.69253    1.000
    H78      H        0.88697    0.62043    0.70653    1.000
    C147     C        0.88137    0.60793    0.54283    1.000
    H79      H        0.86787    0.62213    0.52943    1.000
    C148     C        0.73967    0.58973    0.63203    1.000
    C149     C        0.87907    0.59833    0.59813    1.000
    C150     C        0.81237    0.59833    0.61733    1.000
    H80      H        0.80547    0.59113    0.58003    1.000
    C151     C        0.83497    0.62303    0.72813    1.000
    C152     C        0.79447    0.61443    0.70833    1.000
    H81      H        0.77587    0.61733    0.73203    1.000
    C153     C        0.85167    0.60573    0.63713    1.000
    C154     C        0.67997    0.60083    0.63553    1.000
    H82      H        0.66717    0.61543    0.64963    1.000
    C155     C        0.91837    0.88583    0.11423    1.000
    H83      H        0.90817    0.90053    0.13493    1.000
    C156     C        0.96567    0.88456    0.04723    1.000
    H84      H        0.98847    0.89863    0.02293    1.000
    C157     C        0.71787    0.60863    0.65603    1.000
    H85      H        0.72957    0.62663    0.68643    1.000
    C158     C        0.78307    0.60143    0.65233    1.000
    C159     C        0.89797    0.84163    0.11893    1.000
    H86      H        0.87577    0.82753    0.14423    1.000
    C160     C        0.89027    0.77173    0.09183    1.000
    C161     C        0.71987    0.56093    0.59013    1.000
    H87      H        0.73317    0.54703    0.57513    1.000
    C162     C        0.02137    0.97733    0.07803    1.000
    C163     C        0.61637    0.55979    0.57453    1.000
    C164     C        0.97756    0.95543    0.07863    1.000
    C165     C        0.95287    0.90845    0.08033    1.000
    C166     C        0.68087    0.55169    0.56953    1.000
    H88      H        0.66867    0.53283    0.54003    1.000
    C167     C        0.66007    0.57079    0.59303    1.000
    C168     C        0.94497    0.84087    0.05023    1.000
    H89      H        0.95387    0.82573    0.02833    1.000
    C169     C        0.91037    0.81923    0.08663    1.000
    C170     C        0.88827    0.66663    0.80233    1.000
    H90      H        0.90967    0.67883    0.77573    1.000
    C171     C        0.90447    0.59623    0.50483    1.000
    H91      H        0.90497    0.60203    0.46693    1.000
    C172     C        0.92487    0.56953    0.57903    1.000
    H92      H        0.94047    0.55733    0.59153    1.000
    C173     C        0.89867    0.67823    0.85773    1.000
    H93      H        0.92677    0.69593    0.86823    1.000
    C174     C        0.84737    0.63783    0.78453    1.000
    C175     C        0.82777    0.63723    0.88373    1.000
    H94      H        0.80747    0.62743    0.91203    1.000
    C176     C        0.87967    0.67933    0.95863    1.000
    C177     C        0.81567    0.62363    0.82383    1.000
    H95      H        0.78747    0.60603    0.81373    1.000
    C178     C        0.92547    0.57703    0.52413    1.000
    C179     C        0.86857    0.66383    0.89433    1.000
    C180     C        0.94567    0.55943    0.48223    1.000
    Co10     Co       0.84347    0.71333    0.17313    1.000
    In10     In       0.91212    0.70458    0.07406    1.000
    In11     In       0.55977    0.02611    0.39608    1.000
    Co11     Co       0.48121    0.03006    0.48337    1.000
    O46      O        0.53583    0.08779    0.46957    1.000
    O47      O        0.58235    0.03309    0.30457    1.000
    O48      O        0.26415    0.90553    0.93821    1.000
    O49      O        0.56449    0.08623    0.38759    1.000
    O50      O        0.26933    0.87168    0.86306    1.000
    O51      O        0.63863    0.88437    0.83807    1.000
    O52      O        0.51583    0.99712    0.32184    1.000
    O53      O        0.50487    0.99503    0.44453    1.000
    O54      O        0.60563    0.89307    0.76737    1.000
    C181     C        0.56863    0.91217    0.95277    1.000
    H96      H        0.56863    0.90587    0.99047    1.000
    C182     C        0.52823    0.95027    0.02587    1.000
    H97      H        0.55363    0.95377    0.03987    1.000
    C183     C        0.54803    0.94127    0.87617    1.000
    H98      H        0.53453    0.95547    0.86277    1.000
    C184     C        0.40633    0.92307    0.96537    1.000
    C185     C        0.54573    0.93167    0.93147    1.000
    C186     C        0.47903    0.93167    0.95067    1.000
    H99      H        0.47213    0.92447    0.91337    1.000
    C187     C        0.50163    0.95637    0.06147    1.000
    C188     C        0.46113    0.94777    0.04167    1.000
    H100     H        0.44253    0.95067    0.06537    1.000
    C189     C        0.51833    0.93907    0.97047    1.000
    C190     C        0.34663    0.93417    0.96887    1.000
    H101     H        0.33383    0.94877    0.98297    1.000
    C191     C        0.58503    0.21917    0.44757    1.000
    H102     H        0.57483    0.23387    0.46827    1.000
    C192     C        0.63233    0.21790    0.38057    1.000
    H103     H        0.65513    0.23197    0.35627    1.000
    C193     C        0.38453    0.94197    0.98937    1.000
    H104     H        0.39623    0.95997    0.01977    1.000
    C194     C        0.44973    0.93477    0.98567    1.000
    C195     C        0.56463    0.17497    0.45227    1.000
    H105     H        0.54243    0.16087    0.47757    1.000
    C196     C        0.55693    0.10507    0.42517    1.000
    C197     C        0.38653    0.89427    0.92347    1.000
    H106     H        0.39983    0.88037    0.90847    1.000
    C198     C        0.68803    0.31067    0.41137    1.000
    C199     C        0.28303    0.89313    0.90787    1.000
    C200     C        0.64422    0.28877    0.41197    1.000
    C201     C        0.61953    0.24179    0.41367    1.000
    C202     C        0.34753    0.88503    0.90287    1.000
    H107     H        0.33533    0.86617    0.87337    1.000
    C203     C        0.32673    0.90413    0.92637    1.000
    C204     C        0.61163    0.17421    0.38357    1.000
    H108     H        0.62053    0.15907    0.36167    1.000
    C205     C        0.57703    0.15257    0.41997    1.000
    C206     C        0.55493    0.99997    0.13567    1.000
    H109     H        0.57633    0.01217    0.10907    1.000
    C207     C        0.57113    0.92957    0.83817    1.000
    H110     H        0.57163    0.93537    0.80027    1.000
    C208     C        0.59153    0.90287    0.91237    1.000
    H111     H        0.60713    0.89067    0.92487    1.000
    C209     C        0.56533    0.01157    0.19107    1.000
    H112     H        0.59343    0.02927    0.20157    1.000
    C210     C        0.51403    0.97117    0.11787    1.000
    C211     C        0.49443    0.97057    0.21707    1.000
    H113     H        0.47413    0.96077    0.24537    1.000
    C212     C        0.54633    0.01267    0.29197    1.000
    C213     C        0.48233    0.95697    0.15717    1.000
    H114     H        0.45413    0.93937    0.14707    1.000
    C214     C        0.59213    0.91037    0.85747    1.000
    C215     C        0.53523    0.99717    0.22767    1.000
    C216     C        0.61233    0.89277    0.81557    1.000
    Co12     Co       0.51013    0.04667    0.50647    1.000
    In12     In       0.57878    0.03792    0.40740    1.000
    In13     In       0.64055    0.86699    0.72941    1.000
    Co13     Co       0.63661    0.78449    0.81670    1.000
    O55      O        0.57888    0.78138    0.80290    1.000
    O56      O        0.63358    0.88260    0.63790    1.000
    O57      O        0.76114    0.69196    0.27154    1.000
    O58      O        0.58044    0.81160    0.72092    1.000
    O59      O        0.79499    0.73099    0.19639    1.000
    O60      O        0.78230    0.08760    0.17140    1.000
    O61      O        0.66955    0.85205    0.65517    1.000
    O62      O        0.67164    0.84318    0.77786    1.000
    O63      O        0.77360    0.04590    0.10070    1.000
    C217     C        0.75450    0.98980    0.28610    1.000
    H115     H        0.76080    0.99610    0.32380    1.000
    C218     C        0.71640    0.91130    0.35920    1.000
    H116     H        0.71290    0.93320    0.37320    1.000
    C219     C        0.72540    0.94010    0.20950    1.000
    H117     H        0.71120    0.91240    0.19610    1.000
    C220     C        0.74360    0.81660    0.29870    1.000
    C221     C        0.73500    0.94740    0.26480    1.000
    C222     C        0.73500    0.88070    0.28400    1.000
    H118     H        0.74220    0.88100    0.24670    1.000
    C223     C        0.71030    0.87860    0.39480    1.000
    C224     C        0.71890    0.84670    0.37500    1.000
    H119     H        0.71600    0.82520    0.39870    1.000
    C225     C        0.72760    0.91260    0.30380    1.000
    C226     C        0.73250    0.74580    0.30220    1.000
    H120     H        0.71790    0.71840    0.31630    1.000
    C227     C        0.44750    0.69920    0.78090    1.000
    H121     H        0.43280    0.67430    0.80160    1.000
    C228     C        0.44877    0.74777    0.71390    1.000
    H122     H        0.43470    0.75650    0.68960    1.000
    C229     C        0.72470    0.77590    0.32270    1.000
    H123     H        0.70670    0.76960    0.35310    1.000
    C230     C        0.73190    0.84830    0.31900    1.000
    C231     C        0.49170    0.72300    0.78560    1.000
    H124     H        0.50580    0.71490    0.81090    1.000
    C232     C        0.56160    0.78520    0.75850    1.000
    C233     C        0.77240    0.82560    0.25680    1.000
    H125     H        0.78630    0.85280    0.24180    1.000
    C234     C        0.35600    0.71070    0.74470    1.000
    C235     C        0.77354    0.72324    0.24120    1.000
    C236     C        0.37790    0.68879    0.74530    1.000
    C237     C        0.42488    0.71108    0.74700    1.000
    C238     C        0.78164    0.79584    0.23620    1.000
    H126     H        0.80050    0.80250    0.20670    1.000
    C239     C        0.76254    0.75594    0.25970    1.000
    C240     C        0.49246    0.77076    0.71690    1.000
    H127     H        0.50760    0.79480    0.69500    1.000
    C241     C        0.51410    0.75780    0.75330    1.000
    C242     C        0.66670    0.88830    0.46900    1.000
    H128     H        0.65450    0.89750    0.44240    1.000
    C243     C        0.73710    0.97490    0.17150    1.000
    H129     H        0.73130    0.96960    0.13360    1.000
    C244     C        0.76380    0.02200    0.24570    1.000
    H130     H        0.77600    0.04980    0.25820    1.000
    C245     C        0.65510    0.88710    0.52440    1.000
    H131     H        0.63740    0.89750    0.53490    1.000
    C246     C        0.69550    0.87620    0.45120    1.000
    C247     C        0.69610    0.85720    0.55040    1.000
    H132     H        0.70590    0.84670    0.57870    1.000
    C248     C        0.65400    0.86700    0.62530    1.000
    C249     C        0.70970    0.85870    0.49050    1.000
    H133     H        0.72730    0.84810    0.48040    1.000
    C250     C        0.75630    0.01510    0.19080    1.000
    C251     C        0.66950    0.87140    0.56100    1.000
    C252     C        0.77390    0.05290    0.14890    1.000
    Co14     Co       0.62000    0.79680    0.83980    1.000
    In14     In       0.62875    0.87420    0.74073    1.000
    In15     In       0.30722    0.20033    0.06274    1.000
    Co15     Co       0.30328    0.11782    0.15003    1.000
    O64      O        0.24555    0.11471    0.13623    1.000
    O65      O        0.30025    0.21593    0.97123    1.000
    O66      O        0.42781    0.02529    0.60487    1.000
    O67      O        0.24711    0.14493    0.05425    1.000
    O68      O        0.46166    0.06432    0.52972    1.000
    O69      O        0.44897    0.42093    0.50473    1.000
    O70      O        0.33622    0.18538    0.98850    1.000
    O71      O        0.33831    0.17651    0.11119    1.000
    O72      O        0.44027    0.37923    0.43403    1.000
    C253     C        0.42117    0.32313    0.61943    1.000
    H134     H        0.42747    0.32943    0.65713    1.000
    C254     C        0.38307    0.24463    0.69253    1.000
    H135     H        0.37957    0.26653    0.70653    1.000
    C255     C        0.39207    0.27343    0.54283    1.000
    H136     H        0.37787    0.24573    0.52943    1.000
    C256     C        0.41027    0.14993    0.63203    1.000
    C257     C        0.40167    0.28073    0.59813    1.000
    C258     C        0.40167    0.21403    0.61733    1.000
    H137     H        0.40887    0.21433    0.58003    1.000
    C259     C        0.37697    0.21193    0.72813    1.000
    C260     C        0.38557    0.18003    0.70833    1.000
    H138     H        0.38267    0.15853    0.73203    1.000
    C261     C        0.39427    0.24593    0.63713    1.000
    C262     C        0.39917    0.07913    0.63553    1.000
    H139     H        0.38457    0.05173    0.64963    1.000
    C263     C        0.11417    0.03253    0.11423    1.000
    H140     H        0.09947    0.00763    0.13493    1.000
    C264     C        0.11544    0.08110    0.04723    1.000
    H141     H        0.10137    0.08983    0.02293    1.000
    C265     C        0.39137    0.10923    0.65603    1.000
    H142     H        0.37337    0.10293    0.68643    1.000
    C266     C        0.39857    0.18163    0.65233    1.000
    C267     C        0.15837    0.05633    0.11893    1.000
    H143     H        0.17247    0.04823    0.14423    1.000
    C268     C        0.22827    0.11853    0.09183    1.000
    C269     C        0.43907    0.15893    0.59013    1.000
    H144     H        0.45297    0.18613    0.57513    1.000
    C270     C        0.02267    0.04403    0.07803    1.000
    C271     C        0.44021    0.05657    0.57453    1.000
    C272     C        0.04457    0.02212    0.07863    1.000
    C273     C        0.09155    0.04441    0.08033    1.000
    C274     C        0.44831    0.12917    0.56953    1.000
    H145     H        0.46717    0.13583    0.54003    1.000
    C275     C        0.42921    0.08927    0.59303    1.000
    C276     C        0.15913    0.10409    0.05023    1.000
    H146     H        0.17427    0.12813    0.02833    1.000
    C277     C        0.18077    0.09113    0.08663    1.000
    C278     C        0.33337    0.22163    0.80233    1.000
    H147     H        0.32117    0.23083    0.77573    1.000
    C279     C        0.40377    0.30823    0.50483    1.000
    H148     H        0.39797    0.30293    0.46693    1.000
    C280     C        0.43047    0.35533    0.57903    1.000
    H149     H        0.44267    0.38313    0.59153    1.000
    C281     C        0.32177    0.22043    0.85773    1.000
    H150     H        0.30407    0.23083    0.86823    1.000
    C282     C        0.36217    0.20953    0.78453    1.000
    C283     C        0.36277    0.19053    0.88373    1.000
    H151     H        0.37257    0.18003    0.91203    1.000
    C284     C        0.32067    0.20033    0.95863    1.000
    C285     C        0.37637    0.19203    0.82383    1.000
    H152     H        0.39397    0.18143    0.81373    1.000
    C286     C        0.42297    0.34843    0.52413    1.000
    C287     C        0.33617    0.20473    0.89433    1.000
    C288     C        0.44057    0.38623    0.48223    1.000
    Co16     Co       0.28667    0.13013    0.17313    1.000
    In16     In       0.29542    0.20753    0.07406    1.000
    In17     In       0.97389    0.53366    0.39608    1.000
    Co17     Co       0.96994    0.45116    0.48337    1.000
    O73      O        0.91221    0.44805    0.46957    1.000
    O74      O        0.96691    0.54927    0.30457    1.000
    O75      O        0.09447    0.35863    0.93821    1.000
    O76      O        0.91377    0.47827    0.38759    1.000
    O77      O        0.12832    0.39766    0.86306    1.000
    O78      O        0.11563    0.75427    0.83807    1.000
    O79      O        0.00288    0.51872    0.32184    1.000
    O80      O        0.00497    0.50985    0.44453    1.000
    O81      O        0.10693    0.71257    0.76737    1.000
    C289     C        0.08783    0.65647    0.95277    1.000
    H153     H        0.09413    0.66277    0.99047    1.000
    C290     C        0.04973    0.57797    0.02587    1.000
    H154     H        0.04623    0.59987    0.03987    1.000
    C291     C        0.05873    0.60677    0.87617    1.000
    H155     H        0.04453    0.57907    0.86277    1.000
    C292     C        0.07693    0.48327    0.96537    1.000
    C293     C        0.06833    0.61407    0.93147    1.000
    C294     C        0.06833    0.54737    0.95067    1.000
    H156     H        0.07553    0.54767    0.91337    1.000
    C295     C        0.04363    0.54527    0.06147    1.000
    C296     C        0.05223    0.51337    0.04167    1.000
    H157     H        0.04933    0.49187    0.06537    1.000
    C297     C        0.06093    0.57927    0.97047    1.000
    C298     C        0.06583    0.41247    0.96887    1.000
    H158     H        0.05123    0.38507    0.98297    1.000
    C299     C        0.78083    0.36587    0.44757    1.000
    H159     H        0.76613    0.34097    0.46827    1.000
    C300     C        0.78210    0.41444    0.38057    1.000
    H160     H        0.76803    0.42317    0.35627    1.000
    C301     C        0.05803    0.44257    0.98937    1.000
    H161     H        0.04003    0.43627    0.01977    1.000
    C302     C        0.06523    0.51497    0.98567    1.000
    C303     C        0.82503    0.38967    0.45227    1.000
    H162     H        0.83913    0.38157    0.47757    1.000
    C304     C        0.89493    0.45187    0.42517    1.000
    C305     C        0.10573    0.49227    0.92347    1.000
    H163     H        0.11963    0.51947    0.90847    1.000
    C306     C        0.68933    0.37737    0.41137    1.000
    C307     C        0.10687    0.38991    0.90787    1.000
    C308     C        0.71123    0.35546    0.41197    1.000
    C309     C        0.75821    0.37775    0.41367    1.000
    C310     C        0.11497    0.46251    0.90287    1.000
    H164     H        0.13383    0.46917    0.87337    1.000
    C311     C        0.09587    0.42261    0.92637    1.000
    C312     C        0.82579    0.43743    0.38357    1.000
    H165     H        0.84093    0.46147    0.36167    1.000
    C313     C        0.84743    0.42447    0.41997    1.000
    C314     C        0.00003    0.55497    0.13567    1.000
    H166     H        0.98783    0.56417    0.10907    1.000
    C315     C        0.07043    0.64157    0.83817    1.000
    H167     H        0.06463    0.63627    0.80027    1.000
    C316     C        0.09713    0.68867    0.91237    1.000
    H168     H        0.10933    0.71647    0.92487    1.000
    C317     C        0.98843    0.55377    0.19107    1.000
    H169     H        0.97073    0.56417    0.20157    1.000
    C318     C        0.02883    0.54287    0.11787    1.000
    C319     C        0.02943    0.52387    0.21707    1.000
    H170     H        0.03923    0.51337    0.24537    1.000
    C320     C        0.98733    0.53367    0.29197    1.000
    C321     C        0.04303    0.52537    0.15717    1.000
    H171     H        0.06063    0.51477    0.14707    1.000
    C322     C        0.08963    0.68177    0.85747    1.000
    C323     C        0.00283    0.53807    0.22767    1.000
    C324     C        0.10723    0.71957    0.81557    1.000
    Co18     Co       0.95333    0.46347    0.50647    1.000
    In18     In       0.96208    0.54087    0.40740    1.000
    In19     In       0.86699    0.22644    0.27059    1.000
    Co19     Co       0.78449    0.14788    0.18330    1.000
    O82      O        0.78138    0.20250    0.19710    1.000
    O83      O        0.88260    0.24902    0.36210    1.000
    O84      O        0.69196    0.93082    0.72846    1.000
    O85      O        0.81160    0.23116    0.27908    1.000
    O86      O        0.73099    0.93600    0.80361    1.000
    O87      O        0.08760    0.30530    0.82860    1.000
    O88      O        0.85205    0.18250    0.34483    1.000
    O89      O        0.84318    0.17154    0.22214    1.000
    O90      O        0.04590    0.27230    0.89930    1.000
    C325     C        0.98980    0.23530    0.71390    1.000
    H172     H        0.99610    0.23530    0.67620    1.000
    C326     C        0.91130    0.19490    0.64080    1.000
    H173     H        0.93320    0.22030    0.62680    1.000
    C327     C        0.94010    0.21470    0.79050    1.000
    H174     H        0.91240    0.20120    0.80390    1.000
    C328     C        0.81660    0.07300    0.70130    1.000
    C329     C        0.94740    0.21240    0.73520    1.000
    C330     C        0.88070    0.14570    0.71600    1.000
    H175     H        0.88100    0.13880    0.75330    1.000
    C331     C        0.87860    0.16830    0.60520    1.000
    C332     C        0.84670    0.12780    0.62500    1.000
    H176     H        0.82520    0.10920    0.60130    1.000
    C333     C        0.91260    0.18500    0.69620    1.000
    C334     C        0.74580    0.01330    0.69780    1.000
    H177     H        0.71840    0.00050    0.68370    1.000
    C335     C        0.69920    0.25170    0.21910    1.000
    H178     H        0.67430    0.24150    0.19840    1.000
    C336     C        0.74777    0.29900    0.28610    1.000
    H179     H        0.75650    0.32180    0.31040    1.000
    C337     C        0.77590    0.05120    0.67730    1.000
    H180     H        0.76960    0.06290    0.64690    1.000
    C338     C        0.84830    0.11640    0.68100    1.000
    C339     C        0.72300    0.23130    0.21440    1.000
    H181     H        0.71490    0.20910    0.18910    1.000
    C340     C        0.78520    0.22360    0.24150    1.000
    C341     C        0.82560    0.05320    0.74320    1.000
    H182     H        0.85280    0.06650    0.75820    1.000
    C342     C        0.71070    0.35470    0.25530    1.000
    C343     C        0.72324    0.94970    0.75880    1.000
    C344     C        0.68879    0.31089    0.25470    1.000
    C345     C        0.71108    0.28620    0.25300    1.000
    C346     C        0.79584    0.01420    0.76380    1.000
    H183     H        0.80250    0.00200    0.79330    1.000
    C347     C        0.75594    0.99340    0.74030    1.000
    C348     C        0.77076    0.27830    0.28310    1.000
    H184     H        0.79480    0.28720    0.30500    1.000
    C349     C        0.75780    0.24370    0.24670    1.000
    C350     C        0.88830    0.22160    0.53100    1.000
    H185     H        0.89750    0.24300    0.55760    1.000
    C351     C        0.97490    0.23780    0.82850    1.000
    H186     H        0.96960    0.23830    0.86640    1.000
    C352     C        0.02200    0.25820    0.75430    1.000
    H187     H        0.04980    0.27380    0.74180    1.000
    C353     C        0.88710    0.23200    0.47560    1.000
    H188     H        0.89750    0.26010    0.46510    1.000
    C354     C        0.87620    0.18070    0.54880    1.000
    C355     C        0.85720    0.16110    0.44960    1.000
    H189     H        0.84670    0.14080    0.42130    1.000
    C356     C        0.86700    0.21300    0.37470    1.000
    C357     C        0.85870    0.14900    0.50950    1.000
    H190     H        0.84810    0.12080    0.51960    1.000
    C358     C        0.01510    0.25880    0.80920    1.000
    C359     C        0.87140    0.20190    0.43900    1.000
    C360     C        0.05290    0.27900    0.85110    1.000
    Co20     Co       0.79680    0.17680    0.16020    1.000
    In20     In       0.87420    0.24545    0.25927    1.000
    In21     In       0.53366    0.55977    0.60392    1.000
    Co21     Co       0.45116    0.48121    0.51663    1.000
    O91      O        0.44805    0.53583    0.53043    1.000
    O92      O        0.54927    0.58235    0.69543    1.000
    O93      O        0.35863    0.26415    0.06179    1.000
    O94      O        0.47827    0.56449    0.61241    1.000
    O95      O        0.39766    0.26933    0.13694    1.000
    O96      O        0.75427    0.63863    0.16193    1.000
    O97      O        0.51872    0.51583    0.67816    1.000
    O98      O        0.50985    0.50487    0.55547    1.000
    O99      O        0.71257    0.60563    0.23263    1.000
    C361     C        0.65647    0.56863    0.04723    1.000
    H191     H        0.66277    0.56863    0.00953    1.000
    C362     C        0.57797    0.52823    0.97413    1.000
    H192     H        0.59987    0.55363    0.96013    1.000
    C363     C        0.60677    0.54803    0.12383    1.000
    H193     H        0.57907    0.53453    0.13723    1.000
    C364     C        0.48327    0.40633    0.03463    1.000
    C365     C        0.61407    0.54573    0.06853    1.000
    C366     C        0.54737    0.47903    0.04933    1.000
    H194     H        0.54767    0.47213    0.08663    1.000
    C367     C        0.54527    0.50163    0.93853    1.000
    C368     C        0.51337    0.46113    0.95833    1.000
    H195     H        0.49187    0.44253    0.93463    1.000
    C369     C        0.57927    0.51833    0.02953    1.000
    C370     C        0.41247    0.34663    0.03113    1.000
    H196     H        0.38507    0.33383    0.01703    1.000
    C371     C        0.36587    0.58503    0.55243    1.000
    H197     H        0.34097    0.57483    0.53173    1.000
    C372     C        0.41444    0.63233    0.61943    1.000
    H198     H        0.42317    0.65513    0.64373    1.000
    C373     C        0.44257    0.38453    0.01063    1.000
    H199     H        0.43627    0.39623    0.98023    1.000
    C374     C        0.51497    0.44973    0.01433    1.000
    C375     C        0.38967    0.56463    0.54773    1.000
    H200     H        0.38157    0.54243    0.52243    1.000
    C376     C        0.45187    0.55693    0.57483    1.000
    C377     C        0.49227    0.38653    0.07653    1.000
    H201     H        0.51947    0.39983    0.09153    1.000
    C378     C        0.37737    0.68803    0.58863    1.000
    C379     C        0.38991    0.28303    0.09213    1.000
    C380     C        0.35546    0.64422    0.58803    1.000
    C381     C        0.37775    0.61953    0.58633    1.000
    C382     C        0.46251    0.34753    0.09713    1.000
    H202     H        0.46917    0.33533    0.12663    1.000
    C383     C        0.42261    0.32673    0.07363    1.000
    C384     C        0.43743    0.61163    0.61643    1.000
    H203     H        0.46147    0.62053    0.63833    1.000
    C385     C        0.42447    0.57703    0.58003    1.000
    C386     C        0.55497    0.55493    0.86433    1.000
    H204     H        0.56417    0.57633    0.89093    1.000
    C387     C        0.64157    0.57113    0.16183    1.000
    H205     H        0.63627    0.57163    0.19973    1.000
    C388     C        0.68867    0.59153    0.08763    1.000
    H206     H        0.71647    0.60713    0.07513    1.000
    C389     C        0.55377    0.56533    0.80893    1.000
    H207     H        0.56417    0.59343    0.79843    1.000
    C390     C        0.54287    0.51403    0.88213    1.000
    C391     C        0.52387    0.49443    0.78293    1.000
    H208     H        0.51337    0.47413    0.75463    1.000
    C392     C        0.53367    0.54633    0.70803    1.000
    C393     C        0.52537    0.48233    0.84283    1.000
    H209     H        0.51477    0.45413    0.85293    1.000
    C394     C        0.68177    0.59213    0.14253    1.000
    C395     C        0.53807    0.53523    0.77233    1.000
    C396     C        0.71957    0.61233    0.18443    1.000
    Co22     Co       0.46347    0.51013    0.49353    1.000
    In22     In       0.54087    0.57878    0.59260    1.000
    In23     In       0.20033    0.89311    0.93726    1.000
    Co23     Co       0.11782    0.81455    0.84997    1.000
    O100     O        0.11471    0.86917    0.86377    1.000
    O101     O        0.21593    0.91569    0.02877    1.000
    O102     O        0.02529    0.59749    0.39513    1.000
    O103     O        0.14493    0.89783    0.94575    1.000
    O104     O        0.06432    0.60267    0.47028    1.000
    O105     O        0.42093    0.97197    0.49527    1.000
    O106     O        0.18538    0.84917    0.01150    1.000
    O107     O        0.17651    0.83821    0.88881    1.000
    O108     O        0.37923    0.93897    0.56597    1.000
    C397     C        0.32313    0.90197    0.38057    1.000
    H210     H        0.32943    0.90197    0.34287    1.000
    C398     C        0.24463    0.86157    0.30747    1.000
    H211     H        0.26653    0.88697    0.29347    1.000
    C399     C        0.27343    0.88137    0.45717    1.000
    H212     H        0.24573    0.86787    0.47057    1.000
    C400     C        0.14993    0.73967    0.36797    1.000
    C401     C        0.28073    0.87907    0.40187    1.000
    C402     C        0.21403    0.81237    0.38267    1.000
    H213     H        0.21433    0.80547    0.41997    1.000
    C403     C        0.21193    0.83497    0.27187    1.000
    C404     C        0.18003    0.79447    0.29167    1.000
    H214     H        0.15853    0.77587    0.26797    1.000
    C405     C        0.24593    0.85167    0.36287    1.000
    C406     C        0.07913    0.67997    0.36447    1.000
    H215     H        0.05173    0.66717    0.35037    1.000
    C407     C        0.03253    0.91837    0.88577    1.000
    H216     H        0.00763    0.90817    0.86507    1.000
    C408     C        0.08110    0.96567    0.95277    1.000
    H217     H        0.08983    0.98847    0.97707    1.000
    C409     C        0.10923    0.71787    0.34397    1.000
    H218     H        0.10293    0.72957    0.31357    1.000
    C410     C        0.18163    0.78307    0.34767    1.000
    C411     C        0.05633    0.89797    0.88107    1.000
    H219     H        0.04823    0.87577    0.85577    1.000
    C412     C        0.11853    0.89027    0.90817    1.000
    C413     C        0.15893    0.71987    0.40987    1.000
    H220     H        0.18613    0.73317    0.42487    1.000
    C414     C        0.04403    0.02137    0.92197    1.000
    C415     C        0.05657    0.61637    0.42547    1.000
    C416     C        0.02212    0.97756    0.92137    1.000
    C417     C        0.04441    0.95287    0.91967    1.000
    C418     C        0.12917    0.68087    0.43047    1.000
    H221     H        0.13583    0.66867    0.45997    1.000
    C419     C        0.08927    0.66007    0.40697    1.000
    C420     C        0.10409    0.94497    0.94977    1.000
    H222     H        0.12813    0.95387    0.97167    1.000
    C421     C        0.09113    0.91037    0.91337    1.000
    C422     C        0.22163    0.88827    0.19767    1.000
    H223     H        0.23083    0.90967    0.22427    1.000
    C423     C        0.30823    0.90447    0.49517    1.000
    H224     H        0.30293    0.90497    0.53307    1.000
    C424     C        0.35533    0.92487    0.42097    1.000
    H225     H        0.38313    0.94047    0.40847    1.000
    C425     C        0.22043    0.89867    0.14227    1.000
    H226     H        0.23083    0.92677    0.13177    1.000
    C426     C        0.20953    0.84737    0.21547    1.000
    C427     C        0.19053    0.82777    0.11627    1.000
    H227     H        0.18003    0.80747    0.08797    1.000
    C428     C        0.20033    0.87967    0.04137    1.000
    C429     C        0.19203    0.81567    0.17617    1.000
    H228     H        0.18143    0.78747    0.18627    1.000
    C430     C        0.34843    0.92547    0.47587    1.000
    C431     C        0.20473    0.86857    0.10567    1.000
    C432     C        0.38623    0.94567    0.51777    1.000
    Co24     Co       0.13013    0.84347    0.82687    1.000
    In24     In       0.20753    0.91212    0.92594    1.000
    In25     In       0.77356    0.64055    0.27059    1.000
    Co25     Co       0.85212    0.63661    0.18330    1.000
    O109     O        0.79750    0.57888    0.19710    1.000
    O110     O        0.75098    0.63358    0.36210    1.000
    O111     O        0.06918    0.76114    0.72846    1.000
    O112     O        0.76884    0.58044    0.27908    1.000
    O113     O        0.06400    0.79499    0.80361    1.000
    O114     O        0.69470    0.78230    0.82860    1.000
    O115     O        0.81750    0.66955    0.34483    1.000
    O116     O        0.82846    0.67164    0.22214    1.000
    O117     O        0.72770    0.77360    0.89930    1.000
    C433     C        0.76470    0.75450    0.71390    1.000
    H229     H        0.76470    0.76080    0.67620    1.000
    C434     C        0.80510    0.71640    0.64080    1.000
    H230     H        0.77970    0.71290    0.62680    1.000
    C435     C        0.78530    0.72540    0.79050    1.000
    H231     H        0.79880    0.71120    0.80390    1.000
    C436     C        0.92700    0.74360    0.70130    1.000
    C437     C        0.78760    0.73500    0.73520    1.000
    C438     C        0.85430    0.73500    0.71600    1.000
    H232     H        0.86120    0.74220    0.75330    1.000
    C439     C        0.83170    0.71030    0.60520    1.000
    C440     C        0.87220    0.71890    0.62500    1.000
    H233     H        0.89080    0.71600    0.60130    1.000
    C441     C        0.81500    0.72760    0.69620    1.000
    C442     C        0.98670    0.73250    0.69780    1.000
    H234     H        0.99950    0.71790    0.68370    1.000
    C443     C        0.74830    0.44750    0.21910    1.000
    H235     H        0.75850    0.43280    0.19840    1.000
    C444     C        0.70100    0.44877    0.28610    1.000
    H236     H        0.67820    0.43470    0.31040    1.000
    C445     C        0.94880    0.72470    0.67730    1.000
    H237     H        0.93710    0.70670    0.64690    1.000
    C446     C        0.88360    0.73190    0.68100    1.000
    C447     C        0.76870    0.49170    0.21440    1.000
    H238     H        0.79090    0.50580    0.18910    1.000
    C448     C        0.77640    0.56160    0.24150    1.000
    C449     C        0.94680    0.77240    0.74320    1.000
    H239     H        0.93350    0.78630    0.75820    1.000
    C450     C        0.64530    0.35600    0.25530    1.000
    C451     C        0.05030    0.77354    0.75880    1.000
    C452     C        0.68911    0.37790    0.25470    1.000
    C453     C        0.71380    0.42488    0.25300    1.000
    C454     C        0.98580    0.78164    0.76380    1.000
    H240     H        0.99800    0.80050    0.79330    1.000
    C455     C        0.00660    0.76254    0.74030    1.000
    C456     C        0.72170    0.49246    0.28310    1.000
    H241     H        0.71280    0.50760    0.30500    1.000
    C457     C        0.75630    0.51410    0.24670    1.000
    C458     C        0.77840    0.66670    0.53100    1.000
    H242     H        0.75700    0.65450    0.55760    1.000
    C459     C        0.76220    0.73710    0.82850    1.000
    H243     H        0.76170    0.73130    0.86640    1.000
    C460     C        0.74180    0.76380    0.75430    1.000
    H244     H        0.72620    0.77600    0.74180    1.000
    C461     C        0.76800    0.65510    0.47560    1.000
    H245     H        0.73990    0.63740    0.46510    1.000
    C462     C        0.81930    0.69550    0.54880    1.000
    C463     C        0.83890    0.69610    0.44960    1.000
    H246     H        0.85920    0.70590    0.42130    1.000
    C464     C        0.78700    0.65400    0.37470    1.000
    C465     C        0.85100    0.70970    0.50950    1.000
    H247     H        0.87920    0.72730    0.51960    1.000
    C466     C        0.74120    0.75630    0.80920    1.000
    C467     C        0.79810    0.66950    0.43900    1.000
    C468     C        0.72100    0.77390    0.85110    1.000
    Co26     Co       0.82320    0.62000    0.16020    1.000
    In26     In       0.75455    0.62875    0.25927    1.000
    In27     In       0.44023    0.97389    0.60392    1.000
    Co27     Co       0.51879    0.96994    0.51663    1.000
    O118     O        0.46417    0.91221    0.53043    1.000
    O119     O        0.41765    0.96691    0.69543    1.000
    O120     O        0.73585    0.09447    0.06179    1.000
    O121     O        0.43551    0.91377    0.61241    1.000
    O122     O        0.73067    0.12832    0.13694    1.000
    O123     O        0.36137    0.11563    0.16193    1.000
    O124     O        0.48417    0.00288    0.67816    1.000
    O125     O        0.49513    0.00497    0.55547    1.000
    O126     O        0.39437    0.10693    0.23263    1.000
    C469     C        0.43137    0.08783    0.04723    1.000
    H248     H        0.43137    0.09413    0.00953    1.000
    C470     C        0.47177    0.04973    0.97413    1.000
    H249     H        0.44637    0.04623    0.96013    1.000
    C471     C        0.45197    0.05873    0.12383    1.000
    H250     H        0.46547    0.04453    0.13723    1.000
    C472     C        0.59367    0.07693    0.03463    1.000
    C473     C        0.45427    0.06833    0.06853    1.000
    C474     C        0.52097    0.06833    0.04933    1.000
    H251     H        0.52787    0.07553    0.08663    1.000
    C475     C        0.49837    0.04363    0.93853    1.000
    C476     C        0.53887    0.05223    0.95833    1.000
    H252     H        0.55747    0.04933    0.93463    1.000
    C477     C        0.48167    0.06093    0.02953    1.000
    C478     C        0.65337    0.06583    0.03113    1.000
    H253     H        0.66617    0.05123    0.01703    1.000
    C479     C        0.41497    0.78083    0.55243    1.000
    H254     H        0.42517    0.76613    0.53173    1.000
    C480     C        0.36767    0.78210    0.61943    1.000
    H255     H        0.34487    0.76803    0.64373    1.000
    C481     C        0.61547    0.05803    0.01063    1.000
    H256     H        0.60377    0.04003    0.98023    1.000
    C482     C        0.55027    0.06523    0.01433    1.000
    C483     C        0.43537    0.82503    0.54773    1.000
    H257     H        0.45757    0.83913    0.52243    1.000
    C484     C        0.44307    0.89493    0.57483    1.000
    C485     C        0.61347    0.10573    0.07653    1.000
    H258     H        0.60017    0.11963    0.09153    1.000
    C486     C        0.31197    0.68933    0.58863    1.000
    C487     C        0.71697    0.10687    0.09213    1.000
    C488     C        0.35578    0.71123    0.58803    1.000
    C489     C        0.38047    0.75821    0.58633    1.000
    C490     C        0.65247    0.11497    0.09713    1.000
    H259     H        0.66467    0.13383    0.12663    1.000
    C491     C        0.67327    0.09587    0.07363    1.000
    C492     C        0.38837    0.82579    0.61643    1.000
    H260     H        0.37947    0.84093    0.63833    1.000
    C493     C        0.42297    0.84743    0.58003    1.000
    C494     C        0.44507    0.00003    0.86433    1.000
    H261     H        0.42367    0.98783    0.89093    1.000
    C495     C        0.42887    0.07043    0.16183    1.000
    H262     H        0.42837    0.06463    0.19973    1.000
    C496     C        0.40847    0.09713    0.08763    1.000
    H263     H        0.39287    0.10933    0.07513    1.000
    C497     C        0.43467    0.98843    0.80893    1.000
    H264     H        0.40657    0.97073    0.79843    1.000
    C498     C        0.48597    0.02883    0.88213    1.000
    C499     C        0.50557    0.02943    0.78293    1.000
    H265     H        0.52587    0.03923    0.75463    1.000
    C500     C        0.45367    0.98733    0.70803    1.000
    C501     C        0.51767    0.04303    0.84283    1.000
    H266     H        0.54587    0.06063    0.85293    1.000
    C502     C        0.40787    0.08963    0.14253    1.000
    C503     C        0.46477    0.00283    0.77233    1.000
    C504     C        0.38767    0.10723    0.18443    1.000
    Co28     Co       0.48987    0.95333    0.49353    1.000
    In28     In       0.42122    0.96208    0.59260    1.000
    In29     In       0.10689    0.30722    0.93726    1.000
    Co29     Co       0.18545    0.30328    0.84997    1.000
    O127     O        0.13083    0.24555    0.86377    1.000
    O128     O        0.08431    0.30025    0.02877    1.000
    O129     O        0.40251    0.42781    0.39513    1.000
    O130     O        0.10217    0.24711    0.94575    1.000
    O131     O        0.39733    0.46166    0.47028    1.000
    O132     O        0.02803    0.44897    0.49527    1.000
    O133     O        0.15083    0.33622    0.01150    1.000
    O134     O        0.16179    0.33831    0.88881    1.000
    O135     O        0.06103    0.44027    0.56597    1.000
    C505     C        0.09803    0.42117    0.38057    1.000
    H267     H        0.09803    0.42747    0.34287    1.000
    C506     C        0.13843    0.38307    0.30747    1.000
    H268     H        0.11303    0.37957    0.29347    1.000
    C507     C        0.11863    0.39207    0.45717    1.000
    H269     H        0.13213    0.37787    0.47057    1.000
    C508     C        0.26033    0.41027    0.36797    1.000
    C509     C        0.12093    0.40167    0.40187    1.000
    C510     C        0.18763    0.40167    0.38267    1.000
    H270     H        0.19453    0.40887    0.41997    1.000
    C511     C        0.16503    0.37697    0.27187    1.000
    C512     C        0.20553    0.38557    0.29167    1.000
    H271     H        0.22413    0.38267    0.26797    1.000
    C513     C        0.14833    0.39427    0.36287    1.000
    C514     C        0.32003    0.39917    0.36447    1.000
    H272     H        0.33283    0.38457    0.35037    1.000
    C515     C        0.08163    0.11417    0.88577    1.000
    H273     H        0.09183    0.09947    0.86507    1.000
    C516     C        0.03433    0.11544    0.95277    1.000
    H274     H        0.01153    0.10137    0.97707    1.000
    C517     C        0.28213    0.39137    0.34397    1.000
    H275     H        0.27043    0.37337    0.31357    1.000
    C518     C        0.21693    0.39857    0.34767    1.000
    C519     C        0.10203    0.15837    0.88107    1.000
    H276     H        0.12423    0.17247    0.85577    1.000
    C520     C        0.10973    0.22827    0.90817    1.000
    C521     C        0.28013    0.43907    0.40987    1.000
    H277     H        0.26683    0.45297    0.42487    1.000
    C522     C        0.97863    0.02267    0.92197    1.000
    C523     C        0.38363    0.44021    0.42547    1.000
    C524     C        0.02244    0.04457    0.92137    1.000
    C525     C        0.04713    0.09155    0.91967    1.000
    C526     C        0.31913    0.44831    0.43047    1.000
    H278     H        0.33133    0.46717    0.45997    1.000
    C527     C        0.33993    0.42921    0.40697    1.000
    C528     C        0.05503    0.15913    0.94977    1.000
    H279     H        0.04613    0.17427    0.97167    1.000
    C529     C        0.08963    0.18077    0.91337    1.000
    C530     C        0.11173    0.33337    0.19767    1.000
    H280     H        0.09033    0.32117    0.22427    1.000
    C531     C        0.09553    0.40377    0.49517    1.000
    H281     H        0.09503    0.39797    0.53307    1.000
    C532     C        0.07513    0.43047    0.42097    1.000
    H282     H        0.05953    0.44267    0.40847    1.000
    C533     C        0.10133    0.32177    0.14227    1.000
    H283     H        0.07323    0.30407    0.13177    1.000
    C534     C        0.15263    0.36217    0.21547    1.000
    C535     C        0.17223    0.36277    0.11627    1.000
    H284     H        0.19253    0.37257    0.08797    1.000
    C536     C        0.12033    0.32067    0.04137    1.000
    C537     C        0.18433    0.37637    0.17617    1.000
    H285     H        0.21253    0.39397    0.18627    1.000
    C538     C        0.07453    0.42297    0.47587    1.000
    C539     C        0.13143    0.33617    0.10567    1.000
    C540     C        0.05433    0.44057    0.51777    1.000
    Co30     Co       0.15653    0.28667    0.82687    1.000
    In30     In       0.08788    0.29542    0.92594    1.000
    In31     In       0.35945    0.13301    0.27059    1.000
    Co31     Co       0.36339    0.21551    0.18330    1.000
    O136     O        0.42112    0.21862    0.19710    1.000
    O137     O        0.36642    0.11740    0.36210    1.000
    O138     O        0.23886    0.30804    0.72846    1.000
    O139     O        0.41956    0.18840    0.27908    1.000
    O140     O        0.20501    0.26901    0.80361    1.000
    O141     O        0.21770    0.91240    0.82860    1.000
    O142     O        0.33045    0.14795    0.34483    1.000
    O143     O        0.32836    0.15682    0.22214    1.000
    O144     O        0.22640    0.95410    0.89930    1.000
    C541     C        0.24550    0.01020    0.71390    1.000
    H286     H        0.23920    0.00390    0.67620    1.000
    C542     C        0.28360    0.08870    0.64080    1.000
    H287     H        0.28710    0.06680    0.62680    1.000
    C543     C        0.27460    0.05990    0.79050    1.000
    H288     H        0.28880    0.08760    0.80390    1.000
    C544     C        0.25640    0.18340    0.70130    1.000
    C545     C        0.26500    0.05260    0.73520    1.000
    C546     C        0.26500    0.11930    0.71600    1.000
    H289     H        0.25780    0.11900    0.75330    1.000
    C547     C        0.28970    0.12140    0.60520    1.000
    C548     C        0.28110    0.15330    0.62500    1.000
    H290     H        0.28400    0.17480    0.60130    1.000
    C549     C        0.27240    0.08740    0.69620    1.000
    C550     C        0.26750    0.25420    0.69780    1.000
    H291     H        0.28210    0.28160    0.68370    1.000
    C551     C        0.55250    0.30080    0.21910    1.000
    H292     H        0.56720    0.32570    0.19840    1.000
    C552     C        0.55123    0.25223    0.28610    1.000
    H293     H        0.56530    0.24350    0.31040    1.000
    C553     C        0.27530    0.22410    0.67730    1.000
    H294     H        0.29330    0.23040    0.64690    1.000
    C554     C        0.26810    0.15170    0.68100    1.000
    C555     C        0.50830    0.27700    0.21440    1.000
    H295     H        0.49420    0.28510    0.18910    1.000
    C556     C        0.43840    0.21480    0.24150    1.000
    C557     C        0.22760    0.17440    0.74320    1.000
    H296     H        0.21370    0.14720    0.75820    1.000
    C558     C        0.64400    0.28930    0.25530    1.000
    C559     C        0.22646    0.27676    0.75880    1.000
    C560     C        0.62210    0.31121    0.25470    1.000
    C561     C        0.57512    0.28892    0.25300    1.000
    C562     C        0.21836    0.20416    0.76380    1.000
    H297     H        0.19950    0.19750    0.79330    1.000
    C563     C        0.23746    0.24406    0.74030    1.000
    C564     C        0.50754    0.22924    0.28310    1.000
    H298     H        0.49240    0.20520    0.30500    1.000
    C565     C        0.48590    0.24220    0.24670    1.000
    C566     C        0.33330    0.11170    0.53100    1.000
    H299     H        0.34550    0.10250    0.55760    1.000
    C567     C        0.26290    0.02510    0.82850    1.000
    H300     H        0.26870    0.03040    0.86640    1.000
    C568     C        0.23620    0.97800    0.75430    1.000
    H301     H        0.22400    0.95020    0.74180    1.000
    C569     C        0.34490    0.11290    0.47560    1.000
    H302     H        0.36260    0.10250    0.46510    1.000
    C570     C        0.30450    0.12380    0.54880    1.000
    C571     C        0.30390    0.14280    0.44960    1.000
    H303     H        0.29410    0.15330    0.42130    1.000
    C572     C        0.34600    0.13300    0.37470    1.000
    C573     C        0.29030    0.14130    0.50950    1.000
    H304     H        0.27270    0.15190    0.51960    1.000
    C574     C        0.24370    0.98490    0.80920    1.000
    C575     C        0.33050    0.12860    0.43900    1.000
    C576     C        0.22610    0.94710    0.85110    1.000
    Co32     Co       0.38000    0.20320    0.16020    1.000
    In32     In       0.37125    0.12580    0.25927    1.000
    In33     In       0.02611    0.46634    0.60392    1.000
    Co33     Co       0.03006    0.54884    0.51663    1.000
    O145     O        0.08779    0.55195    0.53043    1.000
    O146     O        0.03309    0.45073    0.69543    1.000
    O147     O        0.90553    0.64137    0.06179    1.000
    O148     O        0.08623    0.52173    0.61241    1.000
    O149     O        0.87168    0.60234    0.13694    1.000
    O150     O        0.88437    0.24573    0.16193    1.000
    O151     O        0.99712    0.48128    0.67816    1.000
    O152     O        0.99503    0.49015    0.55547    1.000
    O153     O        0.89307    0.28743    0.23263    1.000
    C577     C        0.91217    0.34353    0.04723    1.000
    H305     H        0.90587    0.33723    0.00953    1.000
    C578     C        0.95027    0.42203    0.97413    1.000
    H306     H        0.95377    0.40013    0.96013    1.000
    C579     C        0.94127    0.39323    0.12383    1.000
    H307     H        0.95547    0.42093    0.13723    1.000
    C580     C        0.92307    0.51673    0.03463    1.000
    C581     C        0.93167    0.38593    0.06853    1.000
    C582     C        0.93167    0.45263    0.04933    1.000
    H308     H        0.92447    0.45233    0.08663    1.000
    C583     C        0.95637    0.45473    0.93853    1.000
    C584     C        0.94777    0.48663    0.95833    1.000
    H309     H        0.95067    0.50813    0.93463    1.000
    C585     C        0.93907    0.42073    0.02953    1.000
    C586     C        0.93417    0.58753    0.03113    1.000
    H310     H        0.94877    0.61493    0.01703    1.000
    C587     C        0.21917    0.63413    0.55243    1.000
    H311     H        0.23387    0.65903    0.53173    1.000
    C588     C        0.21790    0.58556    0.61943    1.000
    H312     H        0.23197    0.57683    0.64373    1.000
    C589     C        0.94197    0.55743    0.01063    1.000
    H313     H        0.95997    0.56373    0.98023    1.000
    C590     C        0.93477    0.48503    0.01433    1.000
    C591     C        0.17497    0.61033    0.54773    1.000
    H314     H        0.16087    0.61843    0.52243    1.000
    C592     C        0.10507    0.54813    0.57483    1.000
    C593     C        0.89427    0.50773    0.07653    1.000
    H315     H        0.88037    0.48053    0.09153    1.000
    C594     C        0.31067    0.62263    0.58863    1.000
    C595     C        0.89313    0.61009    0.09213    1.000
    C596     C        0.28877    0.64454    0.58803    1.000
    C597     C        0.24179    0.62225    0.58633    1.000
    C598     C        0.88503    0.53749    0.09713    1.000
    H316     H        0.86617    0.53083    0.12663    1.000
    C599     C        0.90413    0.57739    0.07363    1.000
    C600     C        0.17421    0.56257    0.61643    1.000
    H317     H        0.15907    0.53853    0.63833    1.000
    C601     C        0.15257    0.57553    0.58003    1.000
    C602     C        0.99997    0.44503    0.86433    1.000
    H318     H        0.01217    0.43583    0.89093    1.000
    C603     C        0.92957    0.35843    0.16183    1.000
    H319     H        0.93537    0.36373    0.19973    1.000
    C604     C        0.90287    0.31133    0.08763    1.000
    H320     H        0.89067    0.28353    0.07513    1.000
    C605     C        0.01157    0.44623    0.80893    1.000
    H321     H        0.02927    0.43583    0.79843    1.000
    C606     C        0.97117    0.45713    0.88213    1.000
    C607     C        0.97057    0.47613    0.78293    1.000
    H322     H        0.96077    0.48663    0.75463    1.000
    C608     C        0.01267    0.46633    0.70803    1.000
    C609     C        0.95697    0.47463    0.84283    1.000
    H323     H        0.93937    0.48523    0.85293    1.000
    C610     C        0.91037    0.31823    0.14253    1.000
    C611     C        0.99717    0.46193    0.77233    1.000
    C612     C        0.89277    0.28043    0.18443    1.000
    Co34     Co       0.04667    0.53653    0.49353    1.000
    In34     In       0.03792    0.45913    0.59260    1.000
    In35     In       0.69278    0.79967    0.93726    1.000
    Co35     Co       0.69672    0.88218    0.84997    1.000
    O154     O        0.75445    0.88529    0.86377    1.000
    O155     O        0.69975    0.78407    0.02877    1.000
    O156     O        0.57219    0.97471    0.39513    1.000
    O157     O        0.75289    0.85507    0.94575    1.000
    O158     O        0.53834    0.93568    0.47028    1.000
    O159     O        0.55103    0.57907    0.49527    1.000
    O160     O        0.66378    0.81462    0.01150    1.000
    O161     O        0.66169    0.82349    0.88881    1.000
    O162     O        0.55973    0.62077    0.56597    1.000
    C613     C        0.57883    0.67687    0.38057    1.000
    H324     H        0.57253    0.67057    0.34287    1.000
    C614     C        0.61693    0.75537    0.30747    1.000
    H325     H        0.62043    0.73347    0.29347    1.000
    C615     C        0.60793    0.72657    0.45717    1.000
    H326     H        0.62213    0.75427    0.47057    1.000
    C616     C        0.58973    0.85007    0.36797    1.000
    C617     C        0.59833    0.71927    0.40187    1.000
    C618     C        0.59833    0.78597    0.38267    1.000
    H327     H        0.59113    0.78567    0.41997    1.000
    C619     C        0.62303    0.78807    0.27187    1.000
    C620     C        0.61443    0.81997    0.29167    1.000
    H328     H        0.61733    0.84147    0.26797    1.000
    C621     C        0.60573    0.75407    0.36287    1.000
    C622     C        0.60083    0.92087    0.36447    1.000
    H329     H        0.61543    0.94827    0.35037    1.000
    C623     C        0.88583    0.96747    0.88577    1.000
    H330     H        0.90053    0.99237    0.86507    1.000
    C624     C        0.88456    0.91890    0.95277    1.000
    H331     H        0.89863    0.91017    0.97707    1.000
    C625     C        0.60863    0.89077    0.34397    1.000
    H332     H        0.62663    0.89707    0.31357    1.000
    C626     C        0.60143    0.81837    0.34767    1.000
    C627     C        0.84163    0.94367    0.88107    1.000
    H333     H        0.82753    0.95177    0.85577    1.000
    C628     C        0.77173    0.88147    0.90817    1.000
    C629     C        0.56093    0.84107    0.40987    1.000
    H334     H        0.54703    0.81387    0.42487    1.000
    C630     C        0.97733    0.95597    0.92197    1.000
    C631     C        0.55979    0.94343    0.42547    1.000
    C632     C        0.95543    0.97788    0.92137    1.000
    C633     C        0.90845    0.95559    0.91967    1.000
    C634     C        0.55169    0.87083    0.43047    1.000
    H335     H        0.53283    0.86417    0.45997    1.000
    C635     C        0.57079    0.91073    0.40697    1.000
    C636     C        0.84087    0.89591    0.94977    1.000
    H336     H        0.82573    0.87187    0.97167    1.000
    C637     C        0.81923    0.90887    0.91337    1.000
    C638     C        0.66663    0.77837    0.19767    1.000
    H337     H        0.67883    0.76917    0.22427    1.000
    C639     C        0.59623    0.69177    0.49517    1.000
    H338     H        0.60203    0.69707    0.53307    1.000
    C640     C        0.56953    0.64467    0.42097    1.000
    H339     H        0.55733    0.61687    0.40847    1.000
    C641     C        0.67823    0.77957    0.14227    1.000
    H340     H        0.69593    0.76917    0.13177    1.000
    C642     C        0.63783    0.79047    0.21547    1.000
    C643     C        0.63723    0.80947    0.11627    1.000
    H341     H        0.62743    0.81997    0.08797    1.000
    C644     C        0.67933    0.79967    0.04137    1.000
    C645     C        0.62363    0.80797    0.17617    1.000
    H342     H        0.60603    0.81857    0.18627    1.000
    C646     C        0.57703    0.65157    0.47587    1.000
    C647     C        0.66383    0.79527    0.10567    1.000
    C648     C        0.55943    0.61377    0.51777    1.000
    Co36     Co       0.71333    0.86987    0.82687    1.000
    In36     In       0.70458    0.79247    0.92594    1.000
