# CIF file generated by openbabel 3.1.0, see https://openbabel.org
data_I
_chemical_name_common 'image0'
_cell_length_a 14.0636
_cell_length_b 15.9152
_cell_length_c 16.5858
_cell_angle_alpha 90
_cell_angle_beta 90
_cell_angle_gamma 90
_space_group_name_H-M_alt 'P 1'
_space_group_name_Hall 'P 1'
loop_
    _symmetry_equiv_pos_as_xyz
    x,y,z
loop_
    _atom_site_label
    _atom_site_type_symbol
    _atom_site_fract_x
    _atom_site_fract_y
    _atom_site_fract_z
    _atom_site_occupancy
    Ni1      Ni       0.47904    0.81749    0.39336    1.000
    C1       C        0.25700    0.99550    0.34118    1.000
    C2       C        0.22100    0.07275    0.36604    1.000
    H1       H        0.24590    0.09860    0.41310    1.000
    C3       C        0.14900    0.11270    0.32273    1.000
    C4       C        0.11380    0.07383    0.25408    1.000
    H2       H        0.06820    0.10230    0.22180    1.000
    C5       C        0.14400    0.99350    0.23144    1.000
    C6       C        0.21600    0.95491    0.27540    1.000
    H3       H        0.23740    0.90050    0.26040    1.000
    C7       C        0.34340    0.95928    0.38255    1.000
    C8       C        0.10730    0.19382    0.34970    1.000
    C9       C        0.09620    0.95317    0.15954    1.000
    O1       O        0.36893    0.99442    0.44679    1.000
    O2       O        0.38201    0.89734    0.34818    1.000
    O3       O        0.13047    0.22470    0.41659    1.000
    O4       O        0.04497    0.22877    0.30538    1.000
    O5       O        0.06409    0.00261    0.10890    1.000
    O6       O        0.09141    0.87368    0.15982    1.000
    C10      C        0.58150    0.80240    0.61450    1.000
    H4       H        0.64940    0.78870    0.61650    1.000
    H5       H        0.54520    0.75880    0.64250    1.000
    H6       H        0.57060    0.85670    0.64070    1.000
    C11      C        0.54990    0.80715    0.52810    1.000
    O7       O        0.56826    0.75021    0.47981    1.000
    O8       O        0.49763    0.86860    0.50511    1.000
    Ni2      Ni       0.02096    0.18251    0.89336    1.000
    C12      C        0.24300    0.00450    0.84118    1.000
    C13      C        0.27900    0.92725    0.86604    1.000
    H7       H        0.25410    0.90140    0.91310    1.000
    C14      C        0.35100    0.88730    0.82273    1.000
    C15      C        0.38620    0.92617    0.75408    1.000
    H8       H        0.43180    0.89770    0.72180    1.000
    C16      C        0.35600    0.00650    0.73144    1.000
    C17      C        0.28400    0.04509    0.77540    1.000
    H9       H        0.26260    0.09950    0.76040    1.000
    C18      C        0.15660    0.04072    0.88255    1.000
    C19      C        0.39270    0.80618    0.84970    1.000
    C20      C        0.40380    0.04683    0.65954    1.000
    O9       O        0.13107    0.00558    0.94679    1.000
    O10      O        0.11799    0.10266    0.84818    1.000
    O11      O        0.36953    0.77530    0.91659    1.000
    O12      O        0.45503    0.77123    0.80538    1.000
    O13      O        0.43591    0.99739    0.60890    1.000
    O14      O        0.40859    0.12632    0.65982    1.000
    C21      C        0.91850    0.19760    0.11450    1.000
    H10      H        0.85060    0.21130    0.11650    1.000
    H11      H        0.95480    0.24120    0.14250    1.000
    H12      H        0.92940    0.14330    0.14070    1.000
    C22      C        0.95010    0.19285    0.02810    1.000
    O15      O        0.93174    0.24979    0.97981    1.000
    O16      O        0.00237    0.13140    0.00511    1.000
    Ni3      Ni       0.52096    0.31749    0.10664    1.000
    C23      C        0.74300    0.49550    0.15882    1.000
    C24      C        0.77900    0.57275    0.13396    1.000
    H13      H        0.75410    0.59860    0.08690    1.000
    C25      C        0.85100    0.61270    0.17727    1.000
    C26      C        0.88620    0.57383    0.24592    1.000
    H14      H        0.93180    0.60230    0.27820    1.000
    C27      C        0.85600    0.49350    0.26856    1.000
    C28      C        0.78400    0.45491    0.22460    1.000
    H15      H        0.76260    0.40050    0.23960    1.000
    C29      C        0.65660    0.45928    0.11745    1.000
    C30      C        0.89270    0.69382    0.15030    1.000
    C31      C        0.90380    0.45317    0.34046    1.000
    O17      O        0.63107    0.49442    0.05321    1.000
    O18      O        0.61799    0.39734    0.15182    1.000
    O19      O        0.86953    0.72470    0.08341    1.000
    O20      O        0.95503    0.72877    0.19462    1.000
    O21      O        0.93591    0.50261    0.39110    1.000
    O22      O        0.90859    0.37368    0.34018    1.000
    C32      C        0.41850    0.30240    0.88550    1.000
    H16      H        0.35060    0.28870    0.88350    1.000
    H17      H        0.45480    0.25880    0.85750    1.000
    H18      H        0.42940    0.35670    0.85930    1.000
    C33      C        0.45010    0.30715    0.97190    1.000
    O23      O        0.43174    0.25021    0.02019    1.000
    O24      O        0.50237    0.36860    0.99489    1.000
    Ni4      Ni       0.97904    0.68251    0.60664    1.000
    C34      C        0.75700    0.50450    0.65882    1.000
    C35      C        0.72100    0.42725    0.63396    1.000
    H19      H        0.74590    0.40140    0.58690    1.000
    C36      C        0.64900    0.38730    0.67727    1.000
    C37      C        0.61380    0.42617    0.74592    1.000
    H20      H        0.56820    0.39770    0.77820    1.000
    C38      C        0.64400    0.50650    0.76856    1.000
    C39      C        0.71600    0.54509    0.72460    1.000
    H21      H        0.73740    0.59950    0.73960    1.000
    C40      C        0.84340    0.54072    0.61745    1.000
    C41      C        0.60730    0.30618    0.65030    1.000
    C42      C        0.59620    0.54683    0.84046    1.000
    O25      O        0.86893    0.50558    0.55321    1.000
    O26      O        0.88201    0.60266    0.65182    1.000
    O27      O        0.63047    0.27530    0.58341    1.000
    O28      O        0.54497    0.27123    0.69462    1.000
    O29      O        0.56409    0.49739    0.89110    1.000
    O30      O        0.59141    0.62632    0.84018    1.000
    C43      C        0.08150    0.69760    0.38550    1.000
    H22      H        0.14940    0.71130    0.38350    1.000
    H23      H        0.04520    0.74120    0.35750    1.000
    H24      H        0.07060    0.64330    0.35930    1.000
    C44      C        0.04990    0.69285    0.47190    1.000
    O31      O        0.06826    0.74979    0.52019    1.000
    O32      O        0.99763    0.63140    0.49489    1.000
    Ni5      Ni       0.52096    0.18251    0.60664    1.000
    C45      C        0.74300    0.00450    0.65882    1.000
    C46      C        0.77900    0.92725    0.63396    1.000
    H25      H        0.75410    0.90140    0.58690    1.000
    C47      C        0.85100    0.88730    0.67727    1.000
    C48      C        0.88620    0.92617    0.74592    1.000
    H26      H        0.93180    0.89770    0.77820    1.000
    C49      C        0.85600    0.00650    0.76856    1.000
    C50      C        0.78400    0.04509    0.72460    1.000
    H27      H        0.76260    0.09950    0.73960    1.000
    C51      C        0.65660    0.04072    0.61745    1.000
    C52      C        0.89270    0.80618    0.65030    1.000
    C53      C        0.90380    0.04683    0.84046    1.000
    O33      O        0.63107    0.00558    0.55321    1.000
    O34      O        0.61799    0.10266    0.65182    1.000
    O35      O        0.86953    0.77530    0.58341    1.000
    O36      O        0.95503    0.77123    0.69462    1.000
    O37      O        0.93591    0.99739    0.89110    1.000
    O38      O        0.90859    0.12632    0.84018    1.000
    C54      C        0.41850    0.19760    0.38550    1.000
    H28      H        0.35060    0.21130    0.38350    1.000
    H29      H        0.45480    0.24120    0.35750    1.000
    H30      H        0.42940    0.14330    0.35930    1.000
    C55      C        0.45010    0.19285    0.47190    1.000
    O39      O        0.43174    0.24979    0.52019    1.000
    O40      O        0.50237    0.13140    0.49489    1.000
    Ni6      Ni       0.97904    0.81749    0.10664    1.000
    C56      C        0.75700    0.99550    0.15882    1.000
    C57      C        0.72100    0.07275    0.13396    1.000
    H31      H        0.74590    0.09860    0.08690    1.000
    C58      C        0.64900    0.11270    0.17727    1.000
    C59      C        0.61380    0.07383    0.24592    1.000
    H32      H        0.56820    0.10230    0.27820    1.000
    C60      C        0.64400    0.99350    0.26856    1.000
    C61      C        0.71600    0.95491    0.22460    1.000
    H33      H        0.73740    0.90050    0.23960    1.000
    C62      C        0.84340    0.95928    0.11745    1.000
    C63      C        0.60730    0.19382    0.15030    1.000
    C64      C        0.59620    0.95317    0.34046    1.000
    O41      O        0.86893    0.99442    0.05321    1.000
    O42      O        0.88201    0.89734    0.15182    1.000
    O43      O        0.63047    0.22470    0.08341    1.000
    O44      O        0.54497    0.22877    0.19462    1.000
    O45      O        0.56409    0.00261    0.39110    1.000
    O46      O        0.59141    0.87368    0.34018    1.000
    C65      C        0.08150    0.80240    0.88550    1.000
    H34      H        0.14940    0.78870    0.88350    1.000
    H35      H        0.04520    0.75880    0.85750    1.000
    H36      H        0.07060    0.85670    0.85930    1.000
    C66      C        0.04990    0.80715    0.97190    1.000
    O47      O        0.06826    0.75021    0.02019    1.000
    O48      O        0.99763    0.86860    0.99489    1.000
    Ni7      Ni       0.47904    0.68251    0.89336    1.000
    C67      C        0.25700    0.50450    0.84118    1.000
    C68      C        0.22100    0.42725    0.86604    1.000
    H37      H        0.24590    0.40140    0.91310    1.000
    C69      C        0.14900    0.38730    0.82273    1.000
    C70      C        0.11380    0.42617    0.75408    1.000
    H38      H        0.06820    0.39770    0.72180    1.000
    C71      C        0.14400    0.50650    0.73144    1.000
    C72      C        0.21600    0.54509    0.77540    1.000
    H39      H        0.23740    0.59950    0.76040    1.000
    C73      C        0.34340    0.54072    0.88255    1.000
    C74      C        0.10730    0.30618    0.84970    1.000
    C75      C        0.09620    0.54683    0.65954    1.000
    O49      O        0.36893    0.50558    0.94679    1.000
    O50      O        0.38201    0.60266    0.84818    1.000
    O51      O        0.13047    0.27530    0.91659    1.000
    O52      O        0.04497    0.27123    0.80538    1.000
    O53      O        0.06409    0.49739    0.60890    1.000
    O54      O        0.09141    0.62632    0.65982    1.000
    C76      C        0.58150    0.69760    0.11450    1.000
    H40      H        0.64940    0.71130    0.11650    1.000
    H41      H        0.54520    0.74120    0.14250    1.000
    H42      H        0.57060    0.64330    0.14070    1.000
    C77      C        0.54990    0.69285    0.02810    1.000
    O55      O        0.56826    0.74979    0.97981    1.000
    O56      O        0.49763    0.63140    0.00511    1.000
    Ni8      Ni       0.02096    0.31749    0.39336    1.000
    C78      C        0.24300    0.49550    0.34118    1.000
    C79      C        0.27900    0.57275    0.36604    1.000
    H43      H        0.25410    0.59860    0.41310    1.000
    C80      C        0.35100    0.61270    0.32273    1.000
    C81      C        0.38620    0.57383    0.25408    1.000
    H44      H        0.43180    0.60230    0.22180    1.000
    C82      C        0.35600    0.49350    0.23144    1.000
    C83      C        0.28400    0.45491    0.27540    1.000
    H45      H        0.26260    0.40050    0.26040    1.000
    C84      C        0.15660    0.45928    0.38255    1.000
    C85      C        0.39270    0.69382    0.34970    1.000
    C86      C        0.40380    0.45317    0.15954    1.000
    O57      O        0.13107    0.49442    0.44679    1.000
    O58      O        0.11799    0.39734    0.34818    1.000
    O59      O        0.36953    0.72470    0.41659    1.000
    O60      O        0.45503    0.72877    0.30538    1.000
    O61      O        0.43591    0.50261    0.10890    1.000
    O62      O        0.40859    0.37368    0.15982    1.000
    C87      C        0.91850    0.30240    0.61450    1.000
    H46      H        0.85060    0.28870    0.61650    1.000
    H47      H        0.95480    0.25880    0.64250    1.000
    H48      H        0.92940    0.35670    0.64070    1.000
    C88      C        0.95010    0.30715    0.52810    1.000
    O63      O        0.93174    0.25021    0.47981    1.000
    O64      O        0.00237    0.36860    0.50511    1.000
    Ni9      Ni       0.50000    0.00000    0.50000    1.000
    Ni10     Ni       0.00000    0.00000    0.00000    1.000
    Ni11     Ni       0.50000    0.50000    0.00000    1.000
    Ni12     Ni       0.00000    0.50000    0.50000    1.000
