# CIF file generated by openbabel 3.1.0, see https://openbabel.org
data_I
_chemical_name_common 'image0'
_cell_length_a 11.7463
_cell_length_b 10.957
_cell_length_c 15.8217
_cell_angle_alpha 90
_cell_angle_beta 91.76
_cell_angle_gamma 90
_space_group_name_H-M_alt 'P 1'
_space_group_name_Hall 'P 1'
loop_
    _symmetry_equiv_pos_as_xyz
    x,y,z
loop_
    _atom_site_label
    _atom_site_type_symbol
    _atom_site_fract_x
    _atom_site_fract_y
    _atom_site_fract_z
    _atom_site_occupancy
    Mn1      Mn       0.25927    0.04236    0.13514    1.000
    Mn2      Mn       0.23982    0.82833    0.28587    1.000
    O1       O        0.96620    0.96700    0.13223    1.000
    O2       O        0.12985    0.93916    0.20287    1.000
    C1       C        0.02220    0.93850    0.19500    1.000
    H1       H        0.98120    0.91330    0.24280    1.000
    O3       O        0.02130    0.18890    0.02853    1.000
    O4       O        0.15740    0.21211    0.12804    1.000
    C2       C        0.07530    0.24840    0.08090    1.000
    H2       H        0.05340    0.33130    0.08700    1.000
    O5       O        0.29994    0.14129    0.25711    1.000
    O6       O        0.30880    0.98500    0.34640    1.000
    C3       C        0.31790    0.09420    0.33030    1.000
    C4       C        0.35480    0.17220    0.40130    1.000
    H3       H        0.33370    0.13390    0.45460    1.000
    H4       H        0.31780    0.25200    0.39590    1.000
    H5       H        0.43770    0.18260    0.40090    1.000
    O7       O        0.18748    0.97180    0.01742    1.000
    O8       O        0.34520    0.91680    0.95398    1.000
    C5       C        0.24190    0.91920    0.96030    1.000
    H6       H        0.19810    0.87730    0.91800    1.000
    O9       O        0.40348    0.12947    0.07790    1.000
    O10      O        0.39630    0.31900    0.12803    1.000
    C6       C        0.43720    0.23830    0.08430    1.000
    H7       H        0.50080    0.26030    0.05200    1.000
    O11      O        0.34983    0.87520    0.17851    1.000
    O12      O        0.50430    0.87230    0.10151    1.000
    C7       C        0.44250    0.82800    0.15490    1.000
    C8       C        0.48000    0.70790    0.19090    1.000
    H8       H        0.54230    0.72090    0.23260    1.000
    H9       H        0.50650    0.65540    0.14530    1.000
    H10      H        0.41590    0.66860    0.21830    1.000
    Mn3      Mn       0.24073    0.54236    0.36486    1.000
    Mn4      Mn       0.26018    0.32833    0.21413    1.000
    O13      O        0.53380    0.46700    0.36777    1.000
    O14      O        0.37015    0.43916    0.29713    1.000
    C9       C        0.47780    0.43850    0.30500    1.000
    H11      H        0.51880    0.41330    0.25720    1.000
    O15      O        0.47870    0.68890    0.47147    1.000
    O16      O        0.34260    0.71211    0.37196    1.000
    C10      C        0.42470    0.74840    0.41910    1.000
    H12      H        0.44660    0.83130    0.41300    1.000
    O17      O        0.20006    0.64129    0.24289    1.000
    O18      O        0.19120    0.48500    0.15360    1.000
    C11      C        0.18210    0.59420    0.16970    1.000
    C12      C        0.14520    0.67220    0.09870    1.000
    H13      H        0.16630    0.63390    0.04540    1.000
    H14      H        0.18220    0.75200    0.10410    1.000
    H15      H        0.06230    0.68260    0.09910    1.000
    O19      O        0.31252    0.47180    0.48258    1.000
    O20      O        0.15480    0.41680    0.54602    1.000
    C13      C        0.25810    0.41920    0.53970    1.000
    H16      H        0.30190    0.37730    0.58200    1.000
    O21      O        0.09652    0.62947    0.42210    1.000
    O22      O        0.10370    0.81900    0.37197    1.000
    C14      C        0.06280    0.73830    0.41570    1.000
    H17      H        0.99920    0.76030    0.44800    1.000
    O23      O        0.15017    0.37520    0.32149    1.000
    O24      O        0.99570    0.37230    0.39849    1.000
    C15      C        0.05750    0.32800    0.34510    1.000
    C16      C        0.02000    0.20790    0.30910    1.000
    H18      H        0.95770    0.22090    0.26740    1.000
    H19      H        0.99350    0.15540    0.35470    1.000
    H20      H        0.08410    0.16860    0.28170    1.000
    Mn5      Mn       0.74073    0.95764    0.86486    1.000
    Mn6      Mn       0.76018    0.17167    0.71413    1.000
    O25      O        0.03380    0.03300    0.86777    1.000
    O26      O        0.87015    0.06084    0.79713    1.000
    C17      C        0.97780    0.06150    0.80500    1.000
    H21      H        0.01880    0.08670    0.75720    1.000
    O27      O        0.97870    0.81110    0.97147    1.000
    O28      O        0.84260    0.78789    0.87196    1.000
    C18      C        0.92470    0.75160    0.91910    1.000
    H22      H        0.94660    0.66870    0.91300    1.000
    O29      O        0.70006    0.85871    0.74289    1.000
    O30      O        0.69120    0.01500    0.65360    1.000
    C19      C        0.68210    0.90580    0.66970    1.000
    C20      C        0.64520    0.82780    0.59870    1.000
    H23      H        0.66630    0.86610    0.54540    1.000
    H24      H        0.68220    0.74800    0.60410    1.000
    H25      H        0.56230    0.81740    0.59910    1.000
    O31      O        0.81252    0.02820    0.98258    1.000
    O32      O        0.65480    0.08320    0.04602    1.000
    C21      C        0.75810    0.08080    0.03970    1.000
    H26      H        0.80190    0.12270    0.08200    1.000
    O33      O        0.59652    0.87053    0.92210    1.000
    O34      O        0.60370    0.68100    0.87197    1.000
    C22      C        0.56280    0.76170    0.91570    1.000
    H27      H        0.49920    0.73970    0.94800    1.000
    O35      O        0.65017    0.12480    0.82149    1.000
    O36      O        0.49570    0.12770    0.89849    1.000
    C23      C        0.55750    0.17200    0.84510    1.000
    C24      C        0.52000    0.29210    0.80910    1.000
    H28      H        0.45770    0.27910    0.76740    1.000
    H29      H        0.49350    0.34460    0.85470    1.000
    H30      H        0.58410    0.33140    0.78170    1.000
    Mn7      Mn       0.75927    0.45764    0.63514    1.000
    Mn8      Mn       0.73982    0.67167    0.78587    1.000
    O37      O        0.46620    0.53300    0.63223    1.000
    O38      O        0.62985    0.56084    0.70287    1.000
    C25      C        0.52220    0.56150    0.69500    1.000
    H31      H        0.48120    0.58670    0.74280    1.000
    O39      O        0.52130    0.31110    0.52853    1.000
    O40      O        0.65740    0.28789    0.62804    1.000
    C26      C        0.57530    0.25160    0.58090    1.000
    H32      H        0.55340    0.16870    0.58700    1.000
    O41      O        0.79994    0.35871    0.75711    1.000
    O42      O        0.80880    0.51500    0.84640    1.000
    C27      C        0.81790    0.40580    0.83030    1.000
    C28      C        0.85480    0.32780    0.90130    1.000
    H33      H        0.83370    0.36610    0.95460    1.000
    H34      H        0.81780    0.24800    0.89590    1.000
    H35      H        0.93770    0.31740    0.90090    1.000
    O43      O        0.68748    0.52820    0.51742    1.000
    O44      O        0.84520    0.58320    0.45398    1.000
    C29      C        0.74190    0.58080    0.46030    1.000
    H36      H        0.69810    0.62270    0.41800    1.000
    O45      O        0.90348    0.37053    0.57790    1.000
    O46      O        0.89630    0.18100    0.62803    1.000
    C30      C        0.93720    0.26170    0.58430    1.000
    H37      H        0.00080    0.23970    0.55200    1.000
    O47      O        0.84983    0.62480    0.67851    1.000
    O48      O        0.00430    0.62770    0.60151    1.000
    C31      C        0.94250    0.67200    0.65490    1.000
    C32      C        0.98000    0.79210    0.69090    1.000
    H38      H        0.04230    0.77910    0.73260    1.000
    H39      H        0.00650    0.84460    0.64530    1.000
    H40      H        0.91590    0.83140    0.71830    1.000
    Mn9      Mn       0.00000    0.00000    0.00000    1.000
    Mn10     Mn       0.50000    0.50000    0.50000    1.000
    Mn11     Mn       0.50000    0.00000    0.00000    1.000
    Mn12     Mn       0.00000    0.50000    0.50000    1.000
