# CIF file generated by openbabel 3.1.0, see https://openbabel.org
data_I
_chemical_name_common 'image0'
_cell_length_a 10.663
_cell_length_b 11.09
_cell_length_c 14.718
_cell_angle_alpha 106.88
_cell_angle_beta 95.76
_cell_angle_gamma 112.99
_space_group_name_H-M_alt 'P 1'
_space_group_name_Hall 'P 1'
loop_
    _symmetry_equiv_pos_as_xyz
    x,y,z
loop_
    _atom_site_label
    _atom_site_type_symbol
    _atom_site_fract_x
    _atom_site_fract_y
    _atom_site_fract_z
    _atom_site_occupancy
    U1       U        0.60813    0.83075    0.88942    1.000
    U2       U        0.34101    0.35138    0.50982    1.000
    O1       O        0.64740    0.63590    0.78800    1.000
    O2       O        0.57320    0.61220    0.91810    1.000
    C1       C        0.60980    0.56560    0.84340    1.000
    C2       C        0.61000    0.42150    0.81520    1.000
    C3       C        0.65700    0.37630    0.73260    1.000
    H1       H        0.68490    0.43120    0.69440    1.000
    C4       C        0.66100    0.24990    0.70910    1.000
    C5       C        0.62620    0.16670    0.76670    1.000
    H2       H        0.63210    0.08180    0.74970    1.000
    C6       C        0.58240    0.21500    0.85040    1.000
    C7       C        0.57380    0.34320    0.87300    1.000
    H3       H        0.54310    0.37500    0.92810    1.000
    C8       C        0.55150    0.13330    0.91570    1.000
    O3       O        0.46860    0.14980    0.96840    1.000
    O4       O        0.60420    0.04900    0.91360    1.000
    N1       N        0.70090    0.19670    0.61890    1.000
    O5       O        0.68470    0.07370    0.59160    1.000
    O6       O        0.75030    0.27590    0.57560    1.000
    O7       O        0.69910    0.89570    0.76400    1.000
    O8       O        0.78680    0.83640    0.63670    1.000
    C9       C        0.78990    0.92510    0.71530    1.000
    C10      C        0.90970    0.06690    0.75100    1.000
    C11      C        0.93990    0.16170    0.84650    1.000
    H4       H        0.88400    0.13810    0.88900    1.000
    C12      C        0.05490    0.29070    0.87540    1.000
    C13      C        0.14140    0.33140    0.81650    1.000
    H5       H        0.21980    0.41810    0.83950    1.000
    C14      C        0.10810    0.23780    0.72010    1.000
    C15      C        0.99370    0.10960    0.68810    1.000
    H6       H        0.97120    0.04960    0.62360    1.000
    C16      C        0.19450    0.27950    0.65000    1.000
    O9       O        0.14880    0.19800    0.56050    1.000
    O10      O        0.30690    0.39110    0.67910    1.000
    N2       N        0.08510    0.39010    0.97570    1.000
    O11      O        0.15100    0.51760    0.99010    1.000
    O12      O        0.04440    0.34540    0.03880    1.000
    O13      O        0.52100    0.57320    0.59590    1.000
    H7       H        0.56900    0.57140    0.64120    1.000
    H8       H        0.48900    0.62680    0.61740    1.000
    U3       U        0.39187    0.16925    0.11058    1.000
    U4       U        0.65899    0.64862    0.49018    1.000
    O14      O        0.35260    0.36410    0.21200    1.000
    O15      O        0.42680    0.38780    0.08190    1.000
    C17      C        0.39020    0.43440    0.15660    1.000
    C18      C        0.39000    0.57850    0.18480    1.000
    C19      C        0.34300    0.62370    0.26740    1.000
    H9       H        0.31510    0.56880    0.30560    1.000
    C20      C        0.33900    0.75010    0.29090    1.000
    C21      C        0.37380    0.83330    0.23330    1.000
    H10      H        0.36790    0.91820    0.25030    1.000
    C22      C        0.41760    0.78500    0.14960    1.000
    C23      C        0.42620    0.65680    0.12700    1.000
    H11      H        0.45690    0.62500    0.07190    1.000
    C24      C        0.44850    0.86670    0.08430    1.000
    O16      O        0.53140    0.85020    0.03160    1.000
    O17      O        0.39580    0.95100    0.08640    1.000
    N3       N        0.29910    0.80330    0.38110    1.000
    O18      O        0.31530    0.92630    0.40840    1.000
    O19      O        0.24970    0.72410    0.42440    1.000
    O20      O        0.30090    0.10430    0.23600    1.000
    O21      O        0.21320    0.16360    0.36330    1.000
    C25      C        0.21010    0.07490    0.28470    1.000
    C26      C        0.09030    0.93310    0.24900    1.000
    C27      C        0.06010    0.83830    0.15350    1.000
    H12      H        0.11600    0.86190    0.11100    1.000
    C28      C        0.94510    0.70930    0.12460    1.000
    C29      C        0.85860    0.66860    0.18350    1.000
    H13      H        0.78020    0.58190    0.16050    1.000
    C30      C        0.89190    0.76220    0.27990    1.000
    C31      C        0.00630    0.89040    0.31190    1.000
    H14      H        0.02880    0.95040    0.37640    1.000
    C32      C        0.80550    0.72050    0.35000    1.000
    O22      O        0.85120    0.80200    0.43950    1.000
    O23      O        0.69310    0.60890    0.32090    1.000
    N4       N        0.91490    0.60990    0.02430    1.000
    O24      O        0.84900    0.48240    0.00990    1.000
    O25      O        0.95560    0.65460    0.96120    1.000
    O26      O        0.47900    0.42680    0.40410    1.000
    H15      H        0.43100    0.42860    0.35880    1.000
    H16      H        0.51100    0.37320    0.38260    1.000
