# CIF file generated by openbabel 3.1.0, see https://openbabel.org
data_I
_chemical_name_common 'GAJYUN_clean'
_cell_length_a 5.6906
_cell_length_b 12.8
_cell_length_c 21.55
_cell_angle_alpha 90
_cell_angle_beta 95.392
_cell_angle_gamma 90
_space_group_name_H-M_alt 'P 1'
_space_group_name_Hall 'P 1'
loop_
    _symmetry_equiv_pos_as_xyz
    x,y,z
loop_
    _atom_site_label
    _atom_site_type_symbol
    _atom_site_fract_x
    _atom_site_fract_y
    _atom_site_fract_z
    _atom_site_occupancy
    Ce1      Ce       0.63155    0.14376    0.96900    1.000
    Ce2      Ce       0.36845    0.64376    0.53100    1.000
    Ce3      Ce       0.36845    0.85624    0.03100    1.000
    Ce4      Ce       0.63155    0.35624    0.46900    1.000
    P1       P        0.90460    0.02500    0.08404    1.000
    P2       P        0.09540    0.52500    0.41596    1.000
    P3       P        0.09540    0.97500    0.91596    1.000
    P4       P        0.90460    0.47500    0.58404    1.000
    H1       H        0.73460    0.97980    0.17480    1.000
    H2       H        0.66730    0.09480    0.15640    1.000
    H3       H        0.74240    0.11490    0.27310    1.000
    H4       H        0.84450    0.00130    0.27880    1.000
    H5       H        0.19750    0.06210    0.32870    1.000
    H6       H        0.99040    0.10490    0.36460    1.000
    H7       H        0.00980    0.26760    0.31610    1.000
    H8       H        0.27670    0.30100    0.24530    1.000
    H9       H        0.37320    0.18650    0.25180    1.000
    H10      H        0.11440    0.19910    0.16100    1.000
    H11      H        0.91210    0.23960    0.19960    1.000
    H12      H        0.26540    0.47980    0.32520    1.000
    H13      H        0.33270    0.59480    0.34360    1.000
    H14      H        0.25760    0.61490    0.22690    1.000
    H15      H        0.15550    0.50130    0.22120    1.000
    H16      H        0.80250    0.56210    0.17130    1.000
    H17      H        0.00960    0.60490    0.13540    1.000
    H18      H        0.99020    0.76760    0.18390    1.000
    H19      H        0.72330    0.80100    0.25470    1.000
    H20      H        0.62680    0.68650    0.24820    1.000
    H21      H        0.88560    0.69910    0.33900    1.000
    H22      H        0.08790    0.73960    0.30040    1.000
    H23      H        0.26540    0.02020    0.82520    1.000
    H24      H        0.33270    0.90520    0.84360    1.000
    H25      H        0.25760    0.88510    0.72690    1.000
    H26      H        0.15550    0.99870    0.72120    1.000
    H27      H        0.80250    0.93790    0.67130    1.000
    H28      H        0.00960    0.89510    0.63540    1.000
    H29      H        0.99020    0.73240    0.68390    1.000
    H30      H        0.72330    0.69900    0.75470    1.000
    H31      H        0.62680    0.81350    0.74820    1.000
    H32      H        0.88560    0.80090    0.83900    1.000
    H33      H        0.08790    0.76040    0.80040    1.000
    H34      H        0.73460    0.52020    0.67480    1.000
    H35      H        0.66730    0.40520    0.65640    1.000
    H36      H        0.74240    0.38510    0.77310    1.000
    H37      H        0.84450    0.49870    0.77880    1.000
    H38      H        0.19750    0.43790    0.82870    1.000
    H39      H        0.99040    0.39510    0.86460    1.000
    H40      H        0.00980    0.23240    0.81610    1.000
    H41      H        0.27670    0.19900    0.74530    1.000
    H42      H        0.37320    0.31350    0.75180    1.000
    H43      H        0.11440    0.30090    0.66100    1.000
    H44      H        0.91210    0.26040    0.69960    1.000
    C1       C        0.79710    0.04550    0.16110    1.000
    C2       C        0.88500    0.07380    0.27240    1.000
    C3       C        0.06300    0.10880    0.32570    1.000
    C4       C        0.14800    0.22180    0.31590    1.000
    C5       C        0.23300    0.22920    0.25290    1.000
    C6       C        0.04900    0.19400    0.20080    1.000
    C7       C        0.32300    0.25690    0.36700    1.000
    C8       C        0.20290    0.54550    0.33890    1.000
    C9       C        0.11500    0.57380    0.22760    1.000
    C10      C        0.93700    0.60880    0.17430    1.000
    C11      C        0.85200    0.72180    0.18410    1.000
    C12      C        0.76700    0.72920    0.24710    1.000
    C13      C        0.95100    0.69400    0.29920    1.000
    C14      C        0.67700    0.75690    0.13300    1.000
    C15      C        0.20290    0.95450    0.83890    1.000
    C16      C        0.11500    0.92620    0.72760    1.000
    C17      C        0.93700    0.89120    0.67430    1.000
    C18      C        0.85200    0.77820    0.68410    1.000
    C19      C        0.76700    0.77080    0.74710    1.000
    C20      C        0.95100    0.80600    0.79920    1.000
    C21      C        0.67700    0.74310    0.63300    1.000
    C22      C        0.79710    0.45450    0.66110    1.000
    C23      C        0.88500    0.42620    0.77240    1.000
    C24      C        0.06300    0.39120    0.82570    1.000
    C25      C        0.14800    0.27820    0.81590    1.000
    C26      C        0.23300    0.27080    0.75290    1.000
    C27      C        0.04900    0.30600    0.70080    1.000
    C28      C        0.32300    0.24310    0.86700    1.000
    N1       N        0.97400    0.08450    0.21090    1.000
    N2       N        0.02600    0.58450    0.28910    1.000
    N3       N        0.02600    0.91550    0.78910    1.000
    N4       N        0.97400    0.41550    0.71090    1.000
    O1       O        0.68450    0.98170    0.04600    1.000
    O2       O        0.95840    0.12910    0.05500    1.000
    O3       O        0.10910    0.95220    0.09210    1.000
    O4       O        0.29860    0.23590    0.42320    1.000
    O5       O        0.49900    0.31180    0.35490    1.000
    O6       O        0.31550    0.48170    0.45400    1.000
    O7       O        0.04160    0.62910    0.44500    1.000
    O8       O        0.89090    0.45220    0.40790    1.000
    O9       O        0.70140    0.73590    0.07680    1.000
    O10      O        0.50100    0.81180    0.14510    1.000
    O11      O        0.31550    0.01830    0.95400    1.000
    O12      O        0.04160    0.87090    0.94500    1.000
    O13      O        0.89090    0.04780    0.90790    1.000
    O14      O        0.70140    0.76410    0.57680    1.000
    O15      O        0.50100    0.68820    0.64510    1.000
    O16      O        0.68450    0.51830    0.54600    1.000
    O17      O        0.95840    0.37090    0.55500    1.000
    O18      O        0.10910    0.54780    0.59210    1.000
    O19      O        0.29860    0.26410    0.92320    1.000
    O20      O        0.49900    0.18820    0.85490    1.000
