# CIF file generated by openbabel 3.1.0, see https://openbabel.org
data_I
_chemical_name_common 'ic8008859_si_001_clean'
_cell_length_a 23.4228
_cell_length_b 23.4225
_cell_length_c 23.4225
_cell_angle_alpha 109.471
_cell_angle_beta 109.471
_cell_angle_gamma 109.471
_space_group_name_H-M_alt 'P 1'
_space_group_name_Hall 'P 1'
loop_
    _symmetry_equiv_pos_as_xyz
    x,y,z
loop_
    _atom_site_label
    _atom_site_type_symbol
    _atom_site_fract_x
    _atom_site_fract_y
    _atom_site_fract_z
    _atom_site_occupancy
    K1       K        0.03276    0.25000    0.28276    1.000
    K2       K        0.71724    0.46724    0.25000    1.000
    K3       K        0.46724    0.75000    0.21724    1.000
    K4       K        0.78276    0.03276    0.75000    1.000
    K5       K        0.75000    0.71724    0.96724    1.000
    K6       K        0.25000    0.78276    0.53276    1.000
    Co1      Co       0.79658    0.00000    0.00000    1.000
    Co2      Co       0.70342    0.70342    0.20342    1.000
    Co3      Co       0.50000    0.79658    0.50000    1.000
    Co4      Co       0.00000    0.50000    0.29658    1.000
    H1       H        0.01640    0.08760    0.88380    1.000
    H2       H        0.36630    0.62030    0.59580    1.000
    H3       H        0.43870    0.94880    0.59970    1.000
    H4       H        0.25040    0.86060    0.78720    1.000
    H5       H        0.71120    0.99400    0.32400    1.000
    H6       H        0.48990    0.65090    0.05120    1.000
    H7       H        0.78090    0.17620    0.88830    1.000
    H8       H        0.88300    0.87690    0.79710    1.000
    H9       H        0.98770    0.07860    0.66950    1.000
    H10      H        0.79900    0.95440    0.55180    1.000
    H11      H        0.69290    0.91630    0.30160    1.000
    H12      H        0.62310    0.00610    0.42020    1.000
    H13      H        0.35070    0.45020    0.12210    1.000
    H14      H        0.69840    0.11470    0.89130    1.000
    H15      H        0.31410    0.91590    0.47260    1.000
    H16      H        0.38380    0.01640    0.58760    1.000
    H17      H        0.77090    0.48660    0.14910    1.000
    H18      H        0.52740    0.94330    0.34150    1.000
    H19      H        0.49390    0.61700    0.91410    1.000
    H20      H        0.00100    0.21090    0.11450    1.000
    H21      H        0.07860    0.16950    0.48770    1.000
    H22      H        0.19750    0.63540    0.97650    1.000
    H23      H        0.67190    0.04980    0.40050    1.000
    H24      H        0.59090    0.51230    0.68180    1.000
    H25      H        0.27900    0.93790    0.80250    1.000
    H26      H        0.07320    0.24840    0.04620    1.000
    H27      H        0.64910    0.77090    0.98660    1.000
    H28      H        0.25160    0.82480    0.29780    1.000
    H29      H        0.97260    0.31410    0.41590    1.000
    H30      H        0.73180    0.39390    0.43970    1.000
    H31      H        0.76820    0.20790    0.66210    1.000
    H32      H        0.80710    0.10870    0.22340    1.000
    H33      H        0.90910    0.59090    0.92140    1.000
    H34      H        0.71210    0.32380    0.10470    1.000
    H35      H        0.73340    0.82410    0.73970    1.000
    H36      H        0.84460    0.59740    0.04560    1.000
    H37      H        0.72910    0.87820    0.71570    1.000
    H38      H        0.70380    0.13260    0.61620    1.000
    H39      H        0.53540    0.72550    0.06490    1.000
    H40      H        0.90160    0.09000    0.55820    1.000
    H41      H        0.66740    0.27390    0.38310    1.000
    H42      H        0.87750    0.99470    0.57340    1.000
    H43      H        0.05180    0.79900    0.45440    1.000
    H44      H        0.39130    0.69840    0.61470    1.000
    H45      H        0.02950    0.69010    0.46460    1.000
    H46      H        0.50600    0.71720    0.83000    1.000
    H47      H        0.50630    0.59070    0.26660    1.000
    H48      H        0.09000    0.05820    0.40160    1.000
    H49      H        0.41240    0.92880    0.29620    1.000
    H50      H        0.17620    0.38830    0.28090    1.000
    H51      H        0.88650    0.88550    0.09640    1.000
    H52      H        0.38980    0.92660    0.13940    1.000
    H53      H        0.44820    0.90260    0.74720    1.000
    H54      H        0.22100    0.02350    0.65890    1.000
    H55      H        0.62210    0.35070    0.95020    1.000
    H56      H        0.62250    0.19590    0.11720    1.000
    H57      H        0.31820    0.33050    0.40910    1.000
    H58      H        0.93790    0.30250    0.77900    1.000
    H59      H        0.88550    0.59640    0.38650    1.000
    H60      H        0.75400    0.13370    0.22950    1.000
    H61      H        0.58410    0.39820    0.05670    1.000
    H62      H        0.15660    0.68840    0.09840    1.000
    H63      H        0.91560    0.67590    0.40930    1.000
    H64      H        0.11170    0.78790    0.39260    1.000
    H65      H        0.34110    0.86460    0.06210    1.000
    H66      H        0.11470    0.39130    0.19840    1.000
    H67      H        0.66250    0.01340    0.78430    1.000
    H68      H        0.45420    0.29210    0.06030    1.000
    H69      H        0.10180    0.18590    0.15850    1.000
    H70      H        0.80990    0.33940    0.27450    1.000
    H71      H        0.51230    0.18180    0.09090    1.000
    H72      H        0.92880    0.79620    0.91240    1.000
    H73      H        0.40420    0.52450    0.27050    1.000
    H74      H        0.70220    0.02700    0.45380    1.000
    H75      H        0.00610    0.92020    0.12310    1.000
    H76      H        0.57870    0.50530    0.38280    1.000
    H77      H        0.22860    0.87790    0.32810    1.000
    H78      H        0.16060    0.47050    0.43510    1.000
    H79      H        0.78790    0.89260    0.61170    1.000
    H80      H        0.60740    0.89530    0.21910    1.000
    H81      H        0.87970    0.74600    0.47550    1.000
    H82      H        0.33940    0.77450    0.30990    1.000
    H83      H        0.28430    0.66250    0.51340    1.000
    H84      H        0.18590    0.65850    0.60180    1.000
    H85      H        0.34340    0.44180    0.53180    1.000
    H86      H        0.28910    0.79010    0.40360    1.000
    H87      H        0.77450    0.80990    0.83940    1.000
    H88      H        0.57120    0.48360    0.86740    1.000
    H89      H        0.20790    0.16210    0.26820    1.000
    H90      H        0.66100    0.01010    0.56130    1.000
    H91      H        0.10650    0.83260    0.71570    1.000
    H92      H        0.04580    0.10610    0.83790    1.000
    H93      H        0.83750    0.62180    0.35090    1.000
    H94      H        0.46820    0.41000    0.31160    1.000
    H95      H        0.47050    0.93510    0.66060    1.000
    H96      H        0.14930    0.27140    0.09950    1.000
    H97      H        0.39820    0.55670    0.08410    1.000
    H98      H        0.29710    0.88300    0.37690    1.000
    H99      H        0.97550    0.87970    0.24600    1.000
    H100     H        0.38530    0.58370    0.27660    1.000
    H101     H        0.90260    0.24720    0.94820    1.000
    H102     H        0.21280    0.57340    0.96320    1.000
    H103     H        0.82480    0.79780    0.75160    1.000
    H104     H        0.59950    0.14930    0.77140    1.000
    H105     H        0.72340    0.80710    0.60870    1.000
    H106     H        0.02350    0.15890    0.72100    1.000
    H107     H        0.19590    0.61720    0.12250    1.000
    H108     H        0.65850    0.10180    0.68590    1.000
    H109     H        0.24840    0.54620    0.57320    1.000
    H110     H        0.95380    0.70220    0.52700    1.000
    H111     H        0.63540    0.47650    0.69750    1.000
    H112     H        0.67590    0.90930    0.41560    1.000
    H113     H        0.89530    0.71910    0.10740    1.000
    H114     H        0.55670    0.58410    0.89820    1.000
    H115     H        0.07340    0.87750    0.49470    1.000
    H116     H        0.10870    0.72340    0.30710    1.000
    H117     H        0.30410    0.42660    0.42130    1.000
    H118     H        0.33790    0.04580    0.60610    1.000
    H119     H        0.25280    0.65540    0.20100    1.000
    H120     H        0.01010    0.06130    0.16100    1.000
    H121     H        0.61350    0.70990    0.99900    1.000
    H122     H        0.01340    0.28430    0.16250    1.000
    H123     H        0.77050    0.40420    0.02450    1.000
    H124     H        0.77660    0.38530    0.08370    1.000
    H125     H        0.39080    0.28430    0.11690    1.000
    H126     H        0.81160    0.46820    0.91000    1.000
    H127     H        0.86060    0.28720    0.75040    1.000
    H128     H        0.86460    0.56210    0.84110    1.000
    H129     H        0.41410    0.49390    0.11700    1.000
    H130     H        0.79010    0.90360    0.78910    1.000
    H131     H        0.58440    0.99370    0.76030    1.000
    H132     H        0.42140    0.90910    0.09090    1.000
    H133     H        0.46320    0.21280    0.07340    1.000
    H134     H        0.16950    0.98770    0.57860    1.000
    H135     H        0.06130    0.66100    0.51010    1.000
    H136     H        0.38720    0.67600    0.67000    1.000
    H137     H        0.84150    0.52740    0.44330    1.000
    H138     H        0.29210    0.56030    0.95420    1.000
    H139     H        0.57980    0.08590    0.70290    1.000
    H140     H        0.74600    0.97550    0.37970    1.000
    H141     H        0.60470    0.71210    0.82380    1.000
    H142     H        0.59740    0.54560    0.34460    1.000
    H143     H        0.59640    0.88650    0.38550    1.000
    H144     H        0.91630    0.80160    0.19290    1.000
    H145     H        0.41000    0.81160    0.96820    1.000
    H146     H        0.32380    0.60470    0.21210    1.000
    H147     H        0.03180    0.34340    0.94180    1.000
    H148     H        0.63940    0.38980    0.42660    1.000
    H149     H        0.40030    0.84910    0.33900    1.000
    H150     H        0.99470    0.07340    0.37750    1.000
    H151     H        0.54620    0.07320    0.74840    1.000
    H152     H        0.42680    0.47300    0.17520    1.000
    H153     H        0.39390    0.93970    0.23180    1.000
    H154     H        0.62180    0.85090    0.33750    1.000
    H155     H        0.26030    0.58440    0.49370    1.000
    H156     H        0.93970    0.73180    0.89390    1.000
    H157     H        0.59840    0.15660    0.18840    1.000
    H158     H        0.05820    0.90160    0.59000    1.000
    H159     H        0.84910    0.83900    0.90030    1.000
    H160     H        0.56210    0.34110    0.36460    1.000
    H161     H        0.96460    0.02950    0.19010    1.000
    H162     H        0.24720    0.44820    0.40260    1.000
    H163     H        0.83260    0.21570    0.60650    1.000
    H164     H        0.42660    0.92130    0.80410    1.000
    H165     H        0.92660    0.63940    0.88980    1.000
    H166     H        0.92130    0.30410    0.92660    1.000
    H167     H        0.52450    0.77050    0.90420    1.000
    H168     H        0.85090    0.83750    0.12180    1.000
    H169     H        0.23970    0.73340    0.32410    1.000
    H170     H        0.48360    0.36740    0.07120    1.000
    H171     H        0.13260    0.11620    0.20380    1.000
    H172     H        0.94880    0.09970    0.93870    1.000
    H173     H        0.21570    0.72910    0.37820    1.000
    H174     H        0.57340    0.46320    0.71280    1.000
    H175     H        0.62030    0.09580    0.86630    1.000
    H176     H        0.39350    0.10920    0.72610    1.000
    H177     H        0.58370    0.77660    0.88530    1.000
    H178     H        0.16210    0.76820    0.70790    1.000
    H179     H        0.78880    0.11280    0.28280    1.000
    H180     H        0.28720    0.25040    0.36060    1.000
    H181     H        0.82410    0.23970    0.23340    1.000
    H182     H        0.87790    0.82810    0.72860    1.000
    H183     H        0.80160    0.69290    0.41630    1.000
    H184     H        0.67600    0.17000    0.88720    1.000
    H185     H        0.61690    0.39080    0.78430    1.000
    H186     H        0.21570    0.10650    0.33260    1.000
    H187     H        0.72550    0.56490    0.03540    1.000
    H188     H        0.68840    0.59840    0.65660    1.000
    H189     H        0.82400    0.71120    0.49400    1.000
    H190     H        0.08760    0.38380    0.51640    1.000
    H191     H        0.27140    0.59950    0.64930    1.000
    H192     H        0.56030    0.45420    0.79210    1.000
    H193     H        0.49900    0.61350    0.20990    1.000
    H194     H        0.47300    0.67520    0.92680    1.000
    H195     H        0.33000    0.50600    0.21720    1.000
    H196     H        0.55120    0.48990    0.15090    1.000
    H197     H        0.91590    0.97260    0.81410    1.000
    H198     H        0.88310    0.66740    0.77390    1.000
    H199     H        0.79780    0.25160    0.32480    1.000
    H200     H        0.90050    0.67190    0.54980    1.000
    H201     H        0.10610    0.33790    0.54580    1.000
    H202     H        0.71720    0.33000    0.00600    1.000
    H203     H        0.08590    0.20290    0.07980    1.000
    H204     H        0.10920    0.22610    0.89350    1.000
    H205     H        0.11620    0.70380    0.63260    1.000
    H206     H        0.38830    0.78090    0.67620    1.000
    H207     H        0.89260    0.11170    0.28790    1.000
    H208     H        0.27390    0.88310    0.16740    1.000
    H209     H        0.30250    0.27900    0.43790    1.000
    H210     H        0.92020    0.62310    0.50610    1.000
    H211     H        0.20290    0.57980    0.58590    1.000
    H212     H        0.82810    0.22860    0.37790    1.000
    H213     H        0.71910    0.60740    0.39530    1.000
    H214     H        0.36740    0.57120    0.98360    1.000
    H215     H        0.88280    0.57870    0.00530    1.000
    H216     H        0.90360    0.28910    0.29010    1.000
    H217     H        0.76660    0.50630    0.09070    1.000
    H218     H        0.54560    0.84460    0.09740    1.000
    H219     H        0.72950    0.75400    0.63370    1.000
    H220     H        0.87690    0.29710    0.38300    1.000
    H221     H        0.17000    0.38720    0.17600    1.000
    H222     H        0.24960    0.03680    0.61020    1.000
    H223     H        0.22610    0.39350    0.60920    1.000
    H224     H        0.21090    0.61450    0.50100    1.000
    H225     H        0.70990    0.49900    0.11350    1.000
    H226     H        0.61720    0.62250    0.69590    1.000
    H227     H        0.70100    0.25280    0.15540    1.000
    H228     H        0.15890    0.22100    0.52350    1.000
    H229     H        0.65090    0.55120    0.98990    1.000
    H230     H        0.04980    0.90050    0.17190    1.000
    H231     H        0.83900    0.40030    0.34910    1.000
    H232     H        0.79620    0.41240    0.42880    1.000
    H233     H        0.78280    0.78880    0.61280    1.000
    H234     H        0.95440    0.05180    0.29900    1.000
    H235     H        0.44180    0.03180    0.84340    1.000
    H236     H        0.11020    0.24960    0.53680    1.000
    H237     H        0.69010    0.96460    0.52950    1.000
    H238     H        0.59090    0.42140    0.40910    1.000
    H239     H        0.50530    0.88280    0.07870    1.000
    H240     H        0.03680    0.11020    0.74960    1.000
    H241     H        0.67520    0.42680    0.97300    1.000
    H242     H        0.99400    0.82400    0.21120    1.000
    H243     H        0.09580    0.36630    0.12030    1.000
    H244     H        0.13370    0.72950    0.25400    1.000
    H245     H        0.61450    0.00100    0.71090    1.000
    H246     H        0.02700    0.95380    0.20220    1.000
    H247     H        0.47650    0.19750    0.13540    1.000
    H248     H        0.87820    0.21570    0.22910    1.000
    H249     H        0.90930    0.91560    0.17590    1.000
    H250     H        0.09970    0.43870    0.44880    1.000
    H251     H        0.18180    0.59090    0.01230    1.000
    H252     H        0.90910    0.31820    0.83050    1.000
    H253     H        0.61700    0.41410    0.99390    1.000
    H254     H        0.56490    0.53540    0.22550    1.000
    H255     H        0.11280    0.78280    0.28880    1.000
    H256     H        0.93510    0.16060    0.97050    1.000
    H257     H        0.33050    0.90910    0.81820    1.000
    H258     H        0.99370    0.26030    0.08440    1.000
    H259     H        0.45020    0.62210    0.85070    1.000
    H260     H        0.94330    0.84150    0.02740    1.000
    H261     H        0.59070    0.76660    0.00630    1.000
    H262     H        0.48660    0.64910    0.27090    1.000
    H263     H        0.65540    0.70100    0.75280    1.000
    H264     H        0.28430    0.61690    0.89080    1.000
    C1       C        0.21290    0.61040    0.99710    1.000
    C2       C        0.68450    0.45860    0.37990    1.000
    C3       C        0.22500    0.70310    0.62870    1.000
    C4       C        0.64420    0.94760    0.35360    1.000
    C5       C        0.28420    0.89750    0.78710    1.000
    C6       C        0.70740    0.32780    0.34200    1.000
    C7       C        0.06950    0.87020    0.65490    1.000
    C8       C        0.34700    0.44560    0.71000    1.000
    C9       C        0.64850    0.57250    0.21420    1.000
    C10      C        0.83840    0.70410    0.45950    1.000
    C11      C        0.85360    0.64420    0.44760    1.000
    C12      C        0.00760    0.10010    0.84750    1.000
    C13      C        0.28670    0.70890    0.63220    1.000
    C14      C        0.66190    0.01350    0.41220    1.000
    C15      C        0.44240    0.77910    0.03190    1.000
    C16      C        0.24450    0.65250    0.15640    1.000
    C17      C        0.64840    0.39870    0.98650    1.000
    C18      C        0.84750    0.59200    0.00390    1.000
    C19      C        0.08810    0.84360    0.49610    1.000
    C20      C        0.24970    0.58780    0.60130    1.000
    C21      C        0.67290    0.32680    0.10250    1.000
    C22      C        0.00600    0.86650    0.71970    1.000
    C23      C        0.92560    0.79690    0.02190    1.000
    C24      C        0.96560    0.88010    0.65370    1.000
    C25      C        0.19930    0.78470    0.12980    1.000
    C26      C        0.77360    0.61990    0.58550    1.000
    C27      C        0.34750    0.00760    0.60010    1.000
    C28      C        0.09980    0.83180    0.67400    1.000
    C29      C        0.57250    0.71420    0.14850    1.000
    C30      C        0.10110    0.07140    0.37170    1.000
    C31      C        0.37130    0.57440    0.09630    1.000
    C32      C        0.38720    0.96300    0.68200    1.000
    C33      C        0.06570    0.42400    0.35150    1.000
    C34      C        0.98470    0.06980    0.18510    1.000
    C35      C        0.60250    0.38670    0.38960    1.000
    C36      C        0.65780    0.42580    0.82600    1.000
    C37      C        0.55240    0.69660    0.90600    1.000
    C38      C        0.04140    0.22590    0.42130    1.000
    C39      C        0.40600    0.55240    0.19660    1.000
    C40      C        0.15370    0.96560    0.38010    1.000
    C41      C        0.58140    0.13280    0.28400    1.000
    C42      C        0.27540    0.12140    0.47500    1.000
    C43      C        0.57780    0.92330    0.29110    1.000
    C44      C        0.92130    0.04140    0.72590    1.000
    C45      C        0.01420    0.17220    0.87960    1.000
    C46      C        0.83180    0.17400    0.59980    1.000
    C47      C        0.07140    0.87170    0.60110    1.000
    C48      C        0.58190    0.06900    0.22650    1.000
    C49      C        0.34010    0.59480    0.05710    1.000
    C50      C        0.84220    0.66820    0.76800    1.000
    C51      C        0.63350    0.13950    0.35320    1.000
    C52      C        0.99610    0.08810    0.34360    1.000
    C53      C        0.22590    0.92130    0.54140    1.000
    C54      C        0.26830    0.76720    0.87070    1.000
    C55      C        0.15990    0.21700    0.25470    1.000
    C56      C        0.91860    0.20260    0.55140    1.000
    C57      C        0.75470    0.15990    0.71700    1.000
    C58      C        0.95950    0.83840    0.20410    1.000
    C59      C        0.62830    0.19970    0.22940    1.000
    C60      C        0.05140    0.91860    0.70260    1.000
    C61      C        0.34630    0.72640    0.81190    1.000
    C62      C        0.71530    0.41460    0.84510    1.000
    C63      C        0.47030    0.39890    0.27060    1.000
    C64      C        0.79260    0.13460    0.62040    1.000
    C65      C        0.38470    0.79960    0.31490    1.000
    C66      C        0.64680    0.28630    0.78030    1.000
    C67      C        0.71900    0.53700    0.92420    1.000
    C68      C        0.90370    0.97810    0.77500    1.000
    C69      C        0.66820    0.26800    0.34220    1.000
    C70      C        0.76720    0.37070    0.76830    1.000
    C71      C        0.41050    0.96810    0.74720    1.000
    C72      C        0.42580    0.32600    0.15780    1.000
    C73      C        0.62980    0.19930    0.28470    1.000
    C74      C        0.74530    0.46230    0.40520    1.000
    C75      C        0.43100    0.51290    0.65750    1.000
    C76      C        0.70040    0.58510    0.01530    1.000
    C77      C        0.10010    0.34750    0.50760    1.000
    C78      C        0.00290    0.11330    0.71580    1.000
    C79      C        0.23170    0.10240    0.49890    1.000
    C80      C        0.89750    0.28710    0.78420    1.000
    C81      C        0.62500    0.01890    0.75870    1.000
    C82      C        0.57670    0.65450    0.86780    1.000
    C83      C        0.85580    0.20940    0.30340    1.000
    C84      C        0.15490    0.06950    0.37020    1.000
    C85      C        0.72940    0.62830    0.69970    1.000
    C86      C        0.77350    0.34250    0.85540    1.000
    C87      C        0.12870    0.22500    0.20310    1.000
    C88      C        0.26440    0.05440    0.40140    1.000
    C89      C        0.32780    0.84200    0.20740    1.000
    C90      C        0.03770    0.28300    0.44290    1.000
    C91      C        0.16010    0.15250    0.25260    1.000
    C92      C        0.58510    0.51530    0.20040    1.000
    C93      C        0.17320    0.34610    0.27570    1.000
    C94      C        0.34880    0.29740    0.21600    1.000
    C95      C        0.87990    0.68450    0.95860    1.000
    C96      C        0.15300    0.86300    0.09860    1.000
    C97      C        0.07580    0.11280    0.29480    1.000
    C98      C        0.69960    0.34600    0.72460    1.000
    C99      C        0.77060    0.47030    0.89890    1.000
    C100     C        0.74460    0.37890    0.04050    1.000
    C101     C        0.25870    0.62500    0.51890    1.000
    C102     C        0.08540    0.30070    0.93050    1.000
    C103     C        0.11530    0.43020    0.41490    1.000
    C104     C        0.73280    0.50110    0.60350    1.000
    C105     C        0.70520    0.31800    0.28100    1.000
    C106     C        0.37890    0.54050    0.24460    1.000
    C107     C        0.65640    0.24450    0.15250    1.000
    C108     C        0.01890    0.25870    0.12500    1.000
    C109     C        0.14640    0.80040    0.02500    1.000
    C110     C        0.90140    0.26440    0.55440    1.000
    C111     C        0.85150    0.06570    0.92400    1.000
    C112     C        0.81550    0.19540    0.77410    1.000
    C113     C        0.94760    0.85360    0.14420    1.000
    C114     C        0.12040    0.79260    0.63460    1.000
    C115     C        0.58780    0.10130    0.74970    1.000
    C116     C        0.28300    0.94290    0.53770    1.000
    C117     C        0.13430    0.75540    0.29590    1.000
    C118     C        0.73980    0.48110    0.10610    1.000
    C119     C        0.87530    0.66630    0.00960    1.000
    C120     C        0.39760    0.12930    0.89650    1.000
    C121     C        0.27410    0.81550    0.69540    1.000
    C122     C        0.66160    0.12110    0.86570    1.000
    C123     C        0.66630    0.50960    0.37530    1.000
    C124     C        0.53190    0.44240    0.27910    1.000
    C125     C        0.72650    0.58190    0.56900    1.000
    C126     C        0.61040    0.49710    0.71290    1.000
    C127     C        0.91810    0.14460    0.48710    1.000
    C128     C        0.17400    0.09980    0.33180    1.000
    C129     C        0.42400    0.85150    0.56570    1.000
    C130     C        0.85320    0.63350    0.63950    1.000
    C131     C        0.40020    0.07420    0.73200    1.000
    C132     C        0.91490    0.11530    0.93020    1.000
    C133     C        0.10240    0.99890    0.73170    1.000
    C134     C        0.21000    0.34700    0.94560    1.000
    C135     C        0.64170    0.92750    0.57600    1.000
    C136     C        0.22460    0.69960    0.84600    1.000
    C137     C        0.31800    0.78100    0.20520    1.000
    C138     C        0.89750    0.72430    0.07040    1.000
    C139     C        0.66330    0.25280    0.22090    1.000
    C140     C        0.20940    0.80340    0.35580    1.000
    C141     C        0.13220    0.28670    0.20890    1.000
    C142     C        0.52500    0.14640    0.30040    1.000
    C143     C        0.86650    0.21970    0.50600    1.000
    C144     C        0.82710    0.92960    0.65390    1.000
    C145     C        0.79110    0.57780    0.42330    1.000
    C146     C        0.46230    0.90520    0.24530    1.000
    C147     C        0.15250    0.75260    0.66010    1.000
    C148     C        0.17220    0.37960    0.51420    1.000
    C149     C        0.85830    0.43430    0.28580    1.000
    C150     C        0.37070    0.26830    0.26720    1.000
    C151     C        0.41190    0.90800    0.75550    1.000
    C152     C        0.21970    0.00600    0.36650    1.000
    C153     C        0.68510    0.98470    0.56980    1.000
    C154     C        0.44860    0.15120    0.86720    1.000
    C155     C        0.86570    0.99040    0.65670    1.000
    C156     C        0.80340    0.85580    0.70940    1.000
    C157     C        0.83370    0.20900    0.84330    1.000
    C158     C        0.54050    0.74460    0.87890    1.000
    C159     C        0.42420    0.71900    0.03700    1.000
    C160     C        0.60250    0.67290    0.82680    1.000
    C161     C        0.53700    0.42420    0.21900    1.000
    C162     C        0.41450    0.53440    0.68810    1.000
    C163     C        0.35540    0.77350    0.84250    1.000
    C164     C        0.12930    0.39650    0.89760    1.000
    C165     C        0.29740    0.71600    0.84880    1.000
    C166     C        0.25280    0.72090    0.16330    1.000
    C167     C        0.23560    0.63700    0.79000    1.000
    C168     C        0.41460    0.34510    0.21530    1.000
    C169     C        0.08950    0.83670    0.55760    1.000
    C170     C        0.84200    0.70740    0.82780    1.000
    C171     C        0.61990    0.08550    0.27360    1.000
    C172     C        0.23200    0.40020    0.57420    1.000
    C173     C        0.59860    0.15300    0.36300    1.000
    C174     C        0.59480    0.55710    0.84010    1.000
    C175     C        0.96810    0.24720    0.91050    1.000
    C176     C        0.85160    0.83810    0.75030    1.000
    C177     C        0.32600    0.65780    0.92580    1.000
    C178     C        0.99890    0.23170    0.60240    1.000
    C179     C        0.65450    0.36780    0.07670    1.000
    C180     C        0.15750    0.43100    0.01290    1.000
    C181     C        0.88960    0.60250    0.88670    1.000
    C182     C        0.42860    0.02970    0.80030    1.000
    C183     C        0.18810    0.41450    0.03440    1.000
    C184     C        0.28630    0.28030    0.14680    1.000
    C185     C        0.59250    0.49240    0.83990    1.000
    C186     C        0.72640    0.31190    0.84630    1.000
    C187     C        0.07600    0.64170    0.42750    1.000
    C188     C        0.51530    0.70040    0.08510    1.000
    C189     C        0.06980    0.68510    0.48470    1.000
    C190     C        0.88010    0.15370    0.46560    1.000
    C191     C        0.32680    0.60250    0.17290    1.000
    C192     C        0.83810    0.25030    0.35160    1.000
    C193     C        0.57870    0.30460    0.12010    1.000
    C194     C        0.52190    0.92560    0.29690    1.000
    C195     C        0.71600    0.34880    0.79740    1.000
    C196     C        0.50390    0.84750    0.09200    1.000
    C197     C        0.78400    0.58140    0.63280    1.000
    C198     C        0.15670    0.86570    0.49040    1.000
    C199     C        0.10350    0.73280    0.00110    1.000
    C200     C        0.05760    0.08950    0.33670    1.000
    C201     C        0.43430    0.78580    0.35830    1.000
    C202     C        0.92330    0.79110    0.07780    1.000
    C203     C        0.11330    0.21580    0.50290    1.000
    C204     C        0.78100    0.70520    0.81800    1.000
    C205     C        0.86630    0.24130    0.26020    1.000
    C206     C        0.48110    0.60610    0.23980    1.000
    C207     C        0.45860    0.87990    0.18450    1.000
    C208     C        0.13950    0.85320    0.13350    1.000
    C209     C        0.26800    0.84220    0.16820    1.000
    C210     C        0.79960    0.81490    0.88470    1.000
    C211     C        0.89390    0.87500    0.13370    1.000
    C212     C        0.27500    0.90370    0.47810    1.000
    C213     C        0.39890    0.77060    0.97030    1.000
    C214     C        0.53440    0.18810    0.91450    1.000
    C215     C        0.51290    0.15750    0.93100    1.000
    C216     C        0.90520    0.74530    0.96230    1.000
    C217     C        0.36780    0.57670    0.15450    1.000
    C218     C        0.30030    0.42860    0.52970    1.000
    C219     C        0.87500    0.63370    0.39390    1.000
    C220     C        0.25550    0.41190    0.40800    1.000
    C221     C        0.72430    0.57040    0.39750    1.000
    C222     C        0.92750    0.07600    0.14170    1.000
    C223     C        0.36540    0.65800    0.98580    1.000
    C224     C        0.77570    0.17320    0.84610    1.000
    C225     C        0.13280    0.78400    0.08140    1.000
    C226     C        0.70410    0.95950    0.33840    1.000
    C227     C        0.84550    0.92220    0.71330    1.000
    C228     C        0.80040    0.52500    0.64640    1.000
    C229     C        0.20260    0.05140    0.41860    1.000
    C230     C        0.19540    0.27410    0.31550    1.000
    C231     C        0.86300    0.59860    0.65300    1.000
    C232     C        0.48650    0.64840    0.89870    1.000
    C233     C        0.64640    0.09400    0.79060    1.000
    C234     C        0.12140    0.97500    0.77540    1.000
    C235     C        0.59630    0.37130    0.07440    1.000
    C236     C        0.01350    0.91220    0.16190    1.000
    C237     C        0.21700    0.75470    0.65990    1.000
    C238     C        0.19970    0.72940    0.12830    1.000
    C239     C        0.37860    0.15400    0.85360    1.000
    C240     C        0.25030    0.85160    0.33810    1.000
    C241     C        0.75540    0.79590    0.63430    1.000
    C242     C        0.79590    0.13430    0.25540    1.000
    C243     C        0.20900    0.34330    0.33370    1.000
    C244     C        0.60610    0.73980    0.98110    1.000
    C245     C        0.79480    0.07580    0.61280    1.000
    C246     C        0.30070    0.43050    0.58540    1.000
    C247     C        0.70310    0.12870    0.72500    1.000
    C248     C        0.63430    0.29100    0.12470    1.000
    C249     C        0.87170    0.10110    0.57140    1.000
    C250     C        0.65250    0.65640    0.74450    1.000
    C251     C        0.29100    0.62470    0.13430    1.000
    C252     C        0.24720    0.41050    0.46810    1.000
    C253     C        0.97500    0.27540    0.62140    1.000
    C254     C        0.57040    0.89750    0.22430    1.000
    C255     C        0.78580    0.85830    0.93430    1.000
    C256     C        0.36570    0.66160    0.62110    1.000
    C257     C        0.05440    0.90140    0.76440    1.000
    C258     C        0.34330    0.83370    0.70900    1.000
    C259     C        0.31190    0.34630    0.22640    1.000
    C260     C        0.08550    0.77360    0.11990    1.000
    C261     C        0.74740    0.39990    0.40750    1.000
    C262     C        0.33990    0.59250    0.99240    1.000
    C263     C        0.21370    0.36050    0.99400    1.000
    C264     C        0.39870    0.48650    0.14840    1.000
    C265     C        0.96300    0.18200    0.88720    1.000
    C266     C        0.13460    0.12040    0.29260    1.000
    C267     C        0.59200    0.50390    0.34750    1.000
    C268     C        0.43050    0.08540    0.80070    1.000
    C269     C        0.21580    0.00290    0.61330    1.000
    C270     C        0.79690    0.52190    0.42560    1.000
    C271     C        0.37960    0.01420    0.67220    1.000
    C272     C        0.77910    0.53190    0.94240    1.000
    C273     C        0.34250    0.35540    0.27350    1.000
    C274     C        0.48580    0.36540    0.15800    1.000
    C275     C        0.15390    0.82710    0.42960    1.000
    C276     C        0.99040    0.15670    0.36570    1.000
    C277     C        0.49710    0.21290    0.11040    1.000
    C278     C        0.84360    0.99610    0.58810    1.000
    C279     C        0.24130    0.76020    0.36630    1.000
    C280     C        0.21330    0.84550    0.42220    1.000
    C281     C        0.34510    0.71530    0.91460    1.000
    C282     C        0.90800    0.25550    0.91190    1.000
    C283     C        0.38670    0.88960    0.10250    1.000
    C284     C        0.14460    0.98710    0.41810    1.000
    C285     C        0.28710    0.28420    0.39750    1.000
    C286     C        0.06900    0.72650    0.08190    1.000
    C287     C        0.49400    0.21370    0.86050    1.000
    C288     C        0.71420    0.64850    0.07250    1.000
    C289     C        0.11280    0.79480    0.57580    1.000
    C290     C        0.02970    0.30030    0.92860    1.000
    C291     C        0.75260    0.16010    0.65250    1.000
    C292     C        0.36720    0.44860    0.65120    1.000
    C293     C        0.91220    0.66190    0.51350    1.000
    C294     C        0.43020    0.91490    0.61530    1.000
    C295     C        0.94290    0.03770    0.78300    1.000
    C296     C        0.49240    0.33990    0.09250    1.000
    C297     C        0.83670    0.05760    0.58950    1.000
    C298     C        0.63370    0.89390    0.37500    1.000
    C299     C        0.18200    0.38720    0.46300    1.000
    C300     C        0.44560    0.21000    0.84700    1.000
    C301     C        0.35360    0.37860    0.65400    1.000
    C302     C        0.30460    0.62010    0.07870    1.000
    C303     C        0.07420    0.23200    0.90020    1.000
    C304     C        0.92220    0.21330    0.34550    1.000
    C305     C        0.36050    0.49400    0.71370    1.000
    C306     C        0.29060    0.64640    0.59400    1.000
    C307     C        0.29000    0.23560    0.13700    1.000
    C308     C        0.70890    0.13220    0.78670    1.000
    C309     C        0.81490    0.38470    0.29960    1.000
    C310     C        0.28030    0.64680    0.78630    1.000
    C311     C        0.98710    0.91810    0.64460    1.000
    C312     C        0.15120    0.36720    0.94860    1.000
    C313     C        0.62470    0.63430    0.79100    1.000
    C314     C        0.15400    0.35360    0.87860    1.000
    C315     C        0.34610    0.77570    0.67320    1.000
    C316     C        0.90750    0.74740    0.89990    1.000
    C317     C        0.65800    0.48580    0.86540    1.000
    C318     C        0.34600    0.22460    0.19960    1.000
    C319     C        0.63700    0.29000    0.73560    1.000
    C320     C        0.10130    0.24970    0.08780    1.000
    C321     C        0.39990    0.90750    0.24740    1.000
    C322     C        0.97810    0.27500    0.40370    1.000
    C323     C        0.50960    0.87530    0.16630    1.000
    C324     C        0.57440    0.59630    0.87130    1.000
    C325     C        0.09400    0.29060    0.14640    1.000
    C326     C        0.55710    0.34010    0.09480    1.000
    C327     C        0.50110    0.10350    0.23280    1.000
    C328     C        0.78470    0.62980    0.69930    1.000
    C329     C        0.76020    0.86630    0.74130    1.000
    C330     C        0.69660    0.40600    0.05240    1.000
    C331     C        0.72090    0.66330    0.75280    1.000
    C332     C        0.62010    0.57870    0.80460    1.000
    C333     C        0.92960    0.15390    0.32710    1.000
    C334     C        0.12110    0.36570    0.16160    1.000
    C335     C        0.39650    0.39760    0.62930    1.000
    C336     C        0.87020    0.15490    0.56950    1.000
    O1       O        0.23350    0.27610    0.38000    1.000
    O2       O        0.59653    0.46728    0.22001    1.000
    O3       O        0.26650    0.64650    0.04260    1.000
    O4       O        0.46400    0.75750    0.33312    1.000
    O5       O        0.37075    0.90347    0.62348    1.000
    O6       O        0.12348    0.37075    0.40347    1.000
    O7       O        0.06232    0.47828    0.36074    1.000
    O8       O        0.43768    0.79842    0.41596    1.000
    O9       O        0.02172    0.58404    0.38246    1.000
    O10      O        0.27610    0.88000    0.73350    1.000
    O11      O        0.58404    0.88246    0.52172    1.000
    O12      O        0.10390    0.22390    0.45740    1.000
    O13      O        0.13088    0.66688    0.42438    1.000
    O14      O        0.83312    0.46400    0.25750    1.000
    O15      O        0.75750    0.83312    0.96400    1.000
    O16      O        0.92438    0.13088    0.16688    1.000
    O17      O        0.63926    0.61754    0.20158    1.000
    O18      O        0.66688    0.92438    0.63088    1.000
    O19      O        0.74250    0.70650    0.07562    1.000
    O20      O        0.61754    0.70158    0.13926    1.000
    O21      O        0.57562    0.74250    0.20650    1.000
    O22      O        0.95740    0.10390    0.72390    1.000
    O23      O        0.70650    0.57562    0.24250    1.000
    O24      O        0.79350    0.03600    0.86912    1.000
    O25      O        0.75273    0.03272    0.62925    1.000
    O26      O        0.62000    0.39610    0.35350    1.000
    O27      O        0.88246    0.02172    0.08404    1.000
    O28      O        0.39610    0.85350    0.12000    1.000
    O29      O        0.85350    0.62000    0.89610    1.000
    O30      O        0.36912    0.79350    0.53600    1.000
    O31      O        0.91596    0.43768    0.29842    1.000
    O32      O        0.03600    0.36912    0.29350    1.000
    O33      O        0.77999    0.74727    0.87652    1.000
    O34      O        0.64650    0.54260    0.76650    1.000
    O35      O        0.46728    0.72001    0.09653    1.000
    O36      O        0.37652    0.77999    0.24727    1.000
    O37      O        0.79842    0.91596    0.93768    1.000
    O38      O        0.12925    0.75273    0.53272    1.000
    O39      O        0.86074    0.06232    0.97828    1.000
    O40      O        0.03272    0.12925    0.25273    1.000
    O41      O        0.88000    0.23350    0.77610    1.000
    O42      O        0.90347    0.12348    0.87075    1.000
    O43      O        0.54260    0.26650    0.14650    1.000
    O44      O        0.74727    0.37652    0.27999    1.000
    O45      O        0.72001    0.59653    0.96728    1.000
    O46      O        0.47828    0.86074    0.56232    1.000
    O47      O        0.22390    0.95740    0.60390    1.000
    O48      O        0.70158    0.63926    0.11754    1.000
