# CIF file generated by openbabel 3.1.0, see https://openbabel.org
data_I
_chemical_name_common 'image0'
_cell_length_a 20.458
_cell_length_b 12.1157
_cell_length_c 16.971
_cell_angle_alpha 90
_cell_angle_beta 90
_cell_angle_gamma 90
_space_group_name_H-M_alt 'P 1'
_space_group_name_Hall 'P 1'
loop_
    _symmetry_equiv_pos_as_xyz
    x,y,z
loop_
    _atom_site_label
    _atom_site_type_symbol
    _atom_site_fract_x
    _atom_site_fract_y
    _atom_site_fract_z
    _atom_site_occupancy
    Zn1      Zn       0.91250    0.54354    0.44291    1.000
    O1       O        0.97623    0.44080    0.40290    1.000
    O2       O        0.05703    0.54960    0.32304    1.000
    O3       O        0.09417    0.46230    0.44514    1.000
    O4       O        0.05910    0.72800    0.20810    1.000
    O5       O        0.07665    0.70480    0.08030    1.000
    O6       O        0.32694    0.03560    0.10620    1.000
    O7       O        0.30719    0.87830    0.04280    1.000
    P1       P        0.04626    0.45137    0.37768    1.000
    C1       C        0.06870    0.32980    0.32280    1.000
    C2       C        0.10560    0.33940    0.25460    1.000
    H1       H        0.11600    0.40930    0.23560    1.000
    C3       C        0.12710    0.24740    0.21440    1.000
    H2       H        0.15120    0.25630    0.16840    1.000
    C4       C        0.11370    0.14250    0.24120    1.000
    C5       C        0.13840    0.04440    0.19770    1.000
    C6       C        0.19990    0.04410    0.16310    1.000
    H3       H        0.22650    0.10590    0.16860    1.000
    C7       C        0.22300    0.95450    0.12060    1.000
    C8       C        0.18300    0.86360    0.11020    1.000
    H4       H        0.19690    0.80490    0.07900    1.000
    C9       C        0.12220    0.86020    0.14620    1.000
    C10      C        0.10060    0.94950    0.19000    1.000
    H5       H        0.06010    0.94600    0.21470    1.000
    C11      C        0.07700    0.13290    0.30960    1.000
    H6       H        0.06720    0.06310    0.32900    1.000
    C12      C        0.05490    0.22480    0.34960    1.000
    H7       H        0.03040    0.21580    0.39520    1.000
    C13      C        0.29050    0.95520    0.08590    1.000
    C14      C        0.08250    0.75640    0.14370    1.000
    Zn2      Zn       0.58750    0.95646    0.94291    1.000
    O8       O        0.52377    0.05920    0.90290    1.000
    O9       O        0.44297    0.95040    0.82304    1.000
    O10      O        0.40583    0.03770    0.94514    1.000
    O11      O        0.44090    0.77200    0.70810    1.000
    O12      O        0.42335    0.79520    0.58030    1.000
    O13      O        0.17306    0.46440    0.60620    1.000
    O14      O        0.19281    0.62170    0.54280    1.000
    P2       P        0.45374    0.04863    0.87768    1.000
    C15      C        0.43130    0.17020    0.82280    1.000
    C16      C        0.39440    0.16060    0.75460    1.000
    H8       H        0.38400    0.09070    0.73560    1.000
    C17      C        0.37290    0.25260    0.71440    1.000
    H9       H        0.34880    0.24370    0.66840    1.000
    C18      C        0.38630    0.35750    0.74120    1.000
    C19      C        0.36160    0.45560    0.69770    1.000
    C20      C        0.30010    0.45590    0.66310    1.000
    H10      H        0.27350    0.39410    0.66860    1.000
    C21      C        0.27700    0.54550    0.62060    1.000
    C22      C        0.31700    0.63640    0.61020    1.000
    H11      H        0.30310    0.69510    0.57900    1.000
    C23      C        0.37780    0.63980    0.64620    1.000
    C24      C        0.39940    0.55050    0.69000    1.000
    H12      H        0.43990    0.55400    0.71470    1.000
    C25      C        0.42300    0.36710    0.80960    1.000
    H13      H        0.43280    0.43690    0.82900    1.000
    C26      C        0.44510    0.27520    0.84960    1.000
    H14      H        0.46960    0.28420    0.89520    1.000
    C27      C        0.20950    0.54480    0.58590    1.000
    C28      C        0.41750    0.74360    0.64370    1.000
    Zn3      Zn       0.08750    0.54354    0.05709    1.000
    O15      O        0.02377    0.44080    0.09710    1.000
    O16      O        0.94297    0.54960    0.17696    1.000
    O17      O        0.90583    0.46230    0.05486    1.000
    O18      O        0.94090    0.72800    0.29190    1.000
    O19      O        0.92335    0.70480    0.41970    1.000
    O20      O        0.67306    0.03560    0.39380    1.000
    O21      O        0.69281    0.87830    0.45720    1.000
    P3       P        0.95374    0.45137    0.12232    1.000
    C29      C        0.93130    0.32980    0.17720    1.000
    C30      C        0.89440    0.33940    0.24540    1.000
    H15      H        0.88400    0.40930    0.26440    1.000
    C31      C        0.87290    0.24740    0.28560    1.000
    H16      H        0.84880    0.25630    0.33160    1.000
    C32      C        0.88630    0.14250    0.25880    1.000
    C33      C        0.86160    0.04440    0.30230    1.000
    C34      C        0.80010    0.04410    0.33690    1.000
    H17      H        0.77350    0.10590    0.33140    1.000
    C35      C        0.77700    0.95450    0.37940    1.000
    C36      C        0.81700    0.86360    0.38980    1.000
    H18      H        0.80310    0.80490    0.42100    1.000
    C37      C        0.87780    0.86020    0.35380    1.000
    C38      C        0.89940    0.94950    0.31000    1.000
    H19      H        0.93990    0.94600    0.28530    1.000
    C39      C        0.92300    0.13290    0.19040    1.000
    H20      H        0.93280    0.06310    0.17100    1.000
    C40      C        0.94510    0.22480    0.15040    1.000
    H21      H        0.96960    0.21580    0.10480    1.000
    C41      C        0.70950    0.95520    0.41410    1.000
    C42      C        0.91750    0.75640    0.35630    1.000
    Zn4      Zn       0.41250    0.95646    0.55709    1.000
    O22      O        0.47623    0.05920    0.59710    1.000
    O23      O        0.55703    0.95040    0.67696    1.000
    O24      O        0.59417    0.03770    0.55486    1.000
    O25      O        0.55910    0.77200    0.79190    1.000
    O26      O        0.57665    0.79520    0.91970    1.000
    O27      O        0.82694    0.46440    0.89380    1.000
    O28      O        0.80719    0.62170    0.95720    1.000
    P4       P        0.54626    0.04863    0.62232    1.000
    C43      C        0.56870    0.17020    0.67720    1.000
    C44      C        0.60560    0.16060    0.74540    1.000
    H22      H        0.61600    0.09070    0.76440    1.000
    C45      C        0.62710    0.25260    0.78560    1.000
    H23      H        0.65120    0.24370    0.83160    1.000
    C46      C        0.61370    0.35750    0.75880    1.000
    C47      C        0.63840    0.45560    0.80230    1.000
    C48      C        0.69990    0.45590    0.83690    1.000
    H24      H        0.72650    0.39410    0.83140    1.000
    C49      C        0.72300    0.54550    0.87940    1.000
    C50      C        0.68300    0.63640    0.88980    1.000
    H25      H        0.69690    0.69510    0.92100    1.000
    C51      C        0.62220    0.63980    0.85380    1.000
    C52      C        0.60060    0.55050    0.81000    1.000
    H26      H        0.56010    0.55400    0.78530    1.000
    C53      C        0.57700    0.36710    0.69040    1.000
    H27      H        0.56720    0.43690    0.67100    1.000
    C54      C        0.55490    0.27520    0.65040    1.000
    H28      H        0.53040    0.28420    0.60480    1.000
    C55      C        0.79050    0.54480    0.91410    1.000
    C56      C        0.58250    0.74360    0.85630    1.000
    Zn5      Zn       0.08750    0.45646    0.55709    1.000
    O29      O        0.02377    0.55920    0.59710    1.000
    O30      O        0.94297    0.45040    0.67696    1.000
    O31      O        0.90583    0.53770    0.55486    1.000
    O32      O        0.94090    0.27200    0.79190    1.000
    O33      O        0.92335    0.29520    0.91970    1.000
    O34      O        0.67306    0.96440    0.89380    1.000
    O35      O        0.69281    0.12170    0.95720    1.000
    P5       P        0.95374    0.54863    0.62232    1.000
    C57      C        0.93130    0.67020    0.67720    1.000
    C58      C        0.89440    0.66060    0.74540    1.000
    H29      H        0.88400    0.59070    0.76440    1.000
    C59      C        0.87290    0.75260    0.78560    1.000
    H30      H        0.84880    0.74370    0.83160    1.000
    C60      C        0.88630    0.85750    0.75880    1.000
    C61      C        0.86160    0.95560    0.80230    1.000
    C62      C        0.80010    0.95590    0.83690    1.000
    H31      H        0.77350    0.89410    0.83140    1.000
    C63      C        0.77700    0.04550    0.87940    1.000
    C64      C        0.81700    0.13640    0.88980    1.000
    H32      H        0.80310    0.19510    0.92100    1.000
    C65      C        0.87780    0.13980    0.85380    1.000
    C66      C        0.89940    0.05050    0.81000    1.000
    H33      H        0.93990    0.05400    0.78530    1.000
    C67      C        0.92300    0.86710    0.69040    1.000
    H34      H        0.93280    0.93690    0.67100    1.000
    C68      C        0.94510    0.77520    0.65040    1.000
    H35      H        0.96960    0.78420    0.60480    1.000
    C69      C        0.70950    0.04480    0.91410    1.000
    C70      C        0.91750    0.24360    0.85630    1.000
    Zn6      Zn       0.41250    0.04354    0.05709    1.000
    O36      O        0.47623    0.94080    0.09710    1.000
    O37      O        0.55703    0.04960    0.17696    1.000
    O38      O        0.59417    0.96230    0.05486    1.000
    O39      O        0.55910    0.22800    0.29190    1.000
    O40      O        0.57665    0.20480    0.41970    1.000
    O41      O        0.82694    0.53560    0.39380    1.000
    O42      O        0.80719    0.37830    0.45720    1.000
    P6       P        0.54626    0.95137    0.12232    1.000
    C71      C        0.56870    0.82980    0.17720    1.000
    C72      C        0.60560    0.83940    0.24540    1.000
    H36      H        0.61600    0.90930    0.26440    1.000
    C73      C        0.62710    0.74740    0.28560    1.000
    H37      H        0.65120    0.75630    0.33160    1.000
    C74      C        0.61370    0.64250    0.25880    1.000
    C75      C        0.63840    0.54440    0.30230    1.000
    C76      C        0.69990    0.54410    0.33690    1.000
    H38      H        0.72650    0.60590    0.33140    1.000
    C77      C        0.72300    0.45450    0.37940    1.000
    C78      C        0.68300    0.36360    0.38980    1.000
    H39      H        0.69690    0.30490    0.42100    1.000
    C79      C        0.62220    0.36020    0.35380    1.000
    C80      C        0.60060    0.44950    0.31000    1.000
    H40      H        0.56010    0.44600    0.28530    1.000
    C81      C        0.57700    0.63290    0.19040    1.000
    H41      H        0.56720    0.56310    0.17100    1.000
    C82      C        0.55490    0.72480    0.15040    1.000
    H42      H        0.53040    0.71580    0.10480    1.000
    C83      C        0.79050    0.45520    0.41410    1.000
    C84      C        0.58250    0.25640    0.35630    1.000
    Zn7      Zn       0.91250    0.45646    0.94291    1.000
    O43      O        0.97623    0.55920    0.90290    1.000
    O44      O        0.05703    0.45040    0.82304    1.000
    O45      O        0.09417    0.53770    0.94514    1.000
    O46      O        0.05910    0.27200    0.70810    1.000
    O47      O        0.07665    0.29520    0.58030    1.000
    O48      O        0.32694    0.96440    0.60620    1.000
    O49      O        0.30719    0.12170    0.54280    1.000
    P7       P        0.04626    0.54863    0.87768    1.000
    C85      C        0.06870    0.67020    0.82280    1.000
    C86      C        0.10560    0.66060    0.75460    1.000
    H43      H        0.11600    0.59070    0.73560    1.000
    C87      C        0.12710    0.75260    0.71440    1.000
    H44      H        0.15120    0.74370    0.66840    1.000
    C88      C        0.11370    0.85750    0.74120    1.000
    C89      C        0.13840    0.95560    0.69770    1.000
    C90      C        0.19990    0.95590    0.66310    1.000
    H45      H        0.22650    0.89410    0.66860    1.000
    C91      C        0.22300    0.04550    0.62060    1.000
    C92      C        0.18300    0.13640    0.61020    1.000
    H46      H        0.19690    0.19510    0.57900    1.000
    C93      C        0.12220    0.13980    0.64620    1.000
    C94      C        0.10060    0.05050    0.69000    1.000
    H47      H        0.06010    0.05400    0.71470    1.000
    C95      C        0.07700    0.86710    0.80960    1.000
    H48      H        0.06720    0.93690    0.82900    1.000
    C96      C        0.05490    0.77520    0.84960    1.000
    H49      H        0.03040    0.78420    0.89520    1.000
    C97      C        0.29050    0.04480    0.58590    1.000
    C98      C        0.08250    0.24360    0.64370    1.000
    Zn8      Zn       0.58750    0.04354    0.44291    1.000
    O50      O        0.52377    0.94080    0.40290    1.000
    O51      O        0.44297    0.04960    0.32304    1.000
    O52      O        0.40583    0.96230    0.44514    1.000
    O53      O        0.44090    0.22800    0.20810    1.000
    O54      O        0.42335    0.20480    0.08030    1.000
    O55      O        0.17306    0.53560    0.10620    1.000
    O56      O        0.19281    0.37830    0.04280    1.000
    P8       P        0.45374    0.95137    0.37768    1.000
    C99      C        0.43130    0.82980    0.32280    1.000
    C100     C        0.39440    0.83940    0.25460    1.000
    H50      H        0.38400    0.90930    0.23560    1.000
    C101     C        0.37290    0.74740    0.21440    1.000
    H51      H        0.34880    0.75630    0.16840    1.000
    C102     C        0.38630    0.64250    0.24120    1.000
    C103     C        0.36160    0.54440    0.19770    1.000
    C104     C        0.30010    0.54410    0.16310    1.000
    H52      H        0.27350    0.60590    0.16860    1.000
    C105     C        0.27700    0.45450    0.12060    1.000
    C106     C        0.31700    0.36360    0.11020    1.000
    H53      H        0.30310    0.30490    0.07900    1.000
    C107     C        0.37780    0.36020    0.14620    1.000
    C108     C        0.39940    0.44950    0.19000    1.000
    H54      H        0.43990    0.44600    0.21470    1.000
    C109     C        0.42300    0.63290    0.30960    1.000
    H55      H        0.43280    0.56310    0.32900    1.000
    C110     C        0.44510    0.72480    0.34960    1.000
    H56      H        0.46960    0.71580    0.39520    1.000
    C111     C        0.20950    0.45520    0.08590    1.000
    C112     C        0.41750    0.25640    0.14370    1.000
    Zn9      Zn       0.00000    0.61899    0.25000    1.000
    Zn10     Zn       0.50000    0.88101    0.75000    1.000
    Zn11     Zn       0.00000    0.38101    0.75000    1.000
    Zn12     Zn       0.50000    0.11899    0.25000    1.000
