# CIF file generated by openbabel 3.1.0, see https://openbabel.org
data_I
_chemical_name_common 'image0'
_cell_length_a 16.178
_cell_length_b 16.178
_cell_length_c 6.8377
_cell_angle_alpha 90
_cell_angle_beta 90
_cell_angle_gamma 90
_space_group_name_H-M_alt 'P 1'
_space_group_name_Hall 'P 1'
loop_
    _symmetry_equiv_pos_as_xyz
    x,y,z
loop_
    _atom_site_label
    _atom_site_type_symbol
    _atom_site_fract_x
    _atom_site_fract_y
    _atom_site_fract_z
    _atom_site_occupancy
    N1       N        0.31870    0.52770    0.21640    1.000
    O1       O        0.32940    0.41970    0.75530    1.000
    O2       O        0.42690    0.48140    0.93120    1.000
    C1       C        0.35340    0.46150    0.90370    1.000
    C2       C        0.29300    0.48930    0.04880    1.000
    C3       C        0.17910    0.61910    0.60000    1.000
    N2       N        0.18130    0.97230    0.21640    1.000
    O3       O        0.17060    0.08030    0.75530    1.000
    O4       O        0.07310    0.01860    0.93120    1.000
    C4       C        0.14660    0.03850    0.90370    1.000
    C5       C        0.20700    0.01070    0.04880    1.000
    C6       C        0.32090    0.88090    0.60000    1.000
    N3       N        0.97230    0.31870    0.71640    1.000
    O5       O        0.08030    0.32940    0.25530    1.000
    O6       O        0.01860    0.42690    0.43120    1.000
    C7       C        0.03850    0.35340    0.40370    1.000
    C8       C        0.01070    0.29300    0.54880    1.000
    C9       C        0.88090    0.17910    0.10000    1.000
    N4       N        0.52770    0.18130    0.71640    1.000
    O7       O        0.41970    0.17060    0.25530    1.000
    O8       O        0.48140    0.07310    0.43120    1.000
    C10      C        0.46150    0.14660    0.40370    1.000
    C11      C        0.48930    0.20700    0.54880    1.000
    C12      C        0.61910    0.32090    0.10000    1.000
    N5       N        0.68130    0.02770    0.78360    1.000
    O9       O        0.67060    0.91970    0.24470    1.000
    O10      O        0.57310    0.98140    0.06880    1.000
    C13      C        0.64660    0.96150    0.09630    1.000
    C14      C        0.70700    0.98930    0.95120    1.000
    C15      C        0.82090    0.11910    0.40000    1.000
    N6       N        0.81870    0.47230    0.78360    1.000
    O11      O        0.82940    0.58030    0.24470    1.000
    O12      O        0.92690    0.51860    0.06880    1.000
    C16      C        0.85340    0.53850    0.09630    1.000
    C17      C        0.79300    0.51070    0.95120    1.000
    C18      C        0.67910    0.38090    0.40000    1.000
    N7       N        0.02770    0.81870    0.28360    1.000
    O13      O        0.91970    0.82940    0.74470    1.000
    O14      O        0.98140    0.92690    0.56880    1.000
    C19      C        0.96150    0.85340    0.59630    1.000
    C20      C        0.98930    0.79300    0.45120    1.000
    C21      C        0.11910    0.67910    0.90000    1.000
    N8       N        0.47230    0.68130    0.28360    1.000
    O15      O        0.58030    0.67060    0.74470    1.000
    O16      O        0.51860    0.57310    0.56880    1.000
    C22      C        0.53850    0.64660    0.59630    1.000
    C23      C        0.51070    0.70700    0.45120    1.000
    C24      C        0.38090    0.82090    0.90000    1.000
    N9       N        0.68130    0.47230    0.78360    1.000
    O17      O        0.67060    0.58030    0.24470    1.000
    O18      O        0.57310    0.51860    0.06880    1.000
    C25      C        0.64660    0.53850    0.09630    1.000
    C26      C        0.70700    0.51070    0.95120    1.000
    C27      C        0.82090    0.38090    0.40000    1.000
    N10      N        0.81870    0.02770    0.78360    1.000
    O19      O        0.82940    0.91970    0.24470    1.000
    O20      O        0.92690    0.98140    0.06880    1.000
    C28      C        0.85340    0.96150    0.09630    1.000
    C29      C        0.79300    0.98930    0.95120    1.000
    C30      C        0.67910    0.11910    0.40000    1.000
    N11      N        0.02770    0.68130    0.28360    1.000
    O21      O        0.91970    0.67060    0.74470    1.000
    O22      O        0.98140    0.57310    0.56880    1.000
    C31      C        0.96150    0.64660    0.59630    1.000
    C32      C        0.98930    0.70700    0.45120    1.000
    C33      C        0.11910    0.82090    0.90000    1.000
    N12      N        0.47230    0.81870    0.28360    1.000
    O23      O        0.58030    0.82940    0.74470    1.000
    O24      O        0.51860    0.92690    0.56880    1.000
    C34      C        0.53850    0.85340    0.59630    1.000
    C35      C        0.51070    0.79300    0.45120    1.000
    C36      C        0.38090    0.67910    0.90000    1.000
    N13      N        0.31870    0.97230    0.21640    1.000
    O25      O        0.32940    0.08030    0.75530    1.000
    O26      O        0.42690    0.01860    0.93120    1.000
    C37      C        0.35340    0.03850    0.90370    1.000
    C38      C        0.29300    0.01070    0.04880    1.000
    C39      C        0.17910    0.88090    0.60000    1.000
    N14      N        0.18130    0.52770    0.21640    1.000
    O27      O        0.17060    0.41970    0.75530    1.000
    O28      O        0.07310    0.48140    0.93120    1.000
    C40      C        0.14660    0.46150    0.90370    1.000
    C41      C        0.20700    0.48930    0.04880    1.000
    C42      C        0.32090    0.61910    0.60000    1.000
    N15      N        0.97230    0.18130    0.71640    1.000
    O29      O        0.08030    0.17060    0.25530    1.000
    O30      O        0.01860    0.07310    0.43120    1.000
    C43      C        0.03850    0.14660    0.40370    1.000
    C44      C        0.01070    0.20700    0.54880    1.000
    C45      C        0.88090    0.32090    0.10000    1.000
    N16      N        0.52770    0.31870    0.71640    1.000
    O31      O        0.41970    0.32940    0.25530    1.000
    O32      O        0.48140    0.42690    0.43120    1.000
    C46      C        0.46150    0.35340    0.40370    1.000
    C47      C        0.48930    0.29300    0.54880    1.000
    C48      C        0.61910    0.17910    0.10000    1.000
    Cd1      Cd       0.45721    0.54279    0.25000    1.000
    Cd2      Cd       0.04279    0.95721    0.25000    1.000
    Cd3      Cd       0.95721    0.45721    0.75000    1.000
    Cd4      Cd       0.54279    0.04279    0.75000    1.000
    Cd5      Cd       0.54279    0.45721    0.75000    1.000
    Cd6      Cd       0.95721    0.04279    0.75000    1.000
    Cd7      Cd       0.04279    0.54279    0.25000    1.000
    Cd8      Cd       0.45721    0.95721    0.25000    1.000
    C49      C        0.25000    0.59080    0.50400    1.000
    C50      C        0.25000    0.54920    0.31270    1.000
    C51      C        0.25000    0.90920    0.50400    1.000
    C52      C        0.25000    0.95080    0.31270    1.000
    C53      C        0.90920    0.25000    0.00400    1.000
    C54      C        0.95080    0.25000    0.81270    1.000
    C55      C        0.59080    0.25000    0.00400    1.000
    C56      C        0.54920    0.25000    0.81270    1.000
    C57      C        0.75000    0.09080    0.49600    1.000
    C58      C        0.75000    0.04920    0.68730    1.000
    C59      C        0.75000    0.40920    0.49600    1.000
    C60      C        0.75000    0.45080    0.68730    1.000
    C61      C        0.09080    0.75000    0.99600    1.000
    C62      C        0.04920    0.75000    0.18730    1.000
    C63      C        0.40920    0.75000    0.99600    1.000
    C64      C        0.45080    0.75000    0.18730    1.000
