# CIF file generated by openbabel 3.1.0, see https://openbabel.org
data_I
_chemical_name_common 'image0'
_cell_length_a 22.1238
_cell_length_b 7.2671
_cell_length_c 13.8675
_cell_angle_alpha 90
_cell_angle_beta 90
_cell_angle_gamma 90
_space_group_name_H-M_alt 'P 1'
_space_group_name_Hall 'P 1'
loop_
    _symmetry_equiv_pos_as_xyz
    x,y,z
loop_
    _atom_site_label
    _atom_site_type_symbol
    _atom_site_fract_x
    _atom_site_fract_y
    _atom_site_fract_z
    _atom_site_occupancy
    N1       N        0.56381    0.34460    0.56420    1.000
    C1       C        0.61106    0.60110    0.38730    1.000
    H1       H        0.62180    0.47920    0.37610    1.000
    C2       C        0.69980    0.64540    0.21850    1.000
    C3       C        0.74470    0.65030    0.33580    1.000
    H2       H        0.66600    0.57050    0.19970    1.000
    H3       H        0.74190    0.58950    0.39710    1.000
    N2       N        0.06381    0.84460    0.06420    1.000
    C4       C        0.11106    0.10110    0.88730    1.000
    H4       H        0.12180    0.97920    0.87610    1.000
    C5       C        0.19980    0.14540    0.71850    1.000
    C6       C        0.24470    0.15030    0.83580    1.000
    H5       H        0.16600    0.07050    0.69970    1.000
    H6       H        0.24190    0.08950    0.89710    1.000
    N3       N        0.43619    0.15540    0.56420    1.000
    C7       C        0.38894    0.89890    0.38730    1.000
    H7       H        0.37820    0.02080    0.37610    1.000
    C8       C        0.30020    0.85460    0.21850    1.000
    C9       C        0.25530    0.84970    0.33580    1.000
    H8       H        0.33400    0.92950    0.19970    1.000
    H9       H        0.25810    0.91050    0.39710    1.000
    N4       N        0.93619    0.65540    0.06420    1.000
    C10      C        0.88894    0.39890    0.88730    1.000
    H10      H        0.87820    0.52080    0.87610    1.000
    C11      C        0.80020    0.35460    0.71850    1.000
    C12      C        0.75530    0.34970    0.83580    1.000
    H11      H        0.83400    0.42950    0.69970    1.000
    H12      H        0.75810    0.41050    0.89710    1.000
    N5       N        0.43619    0.84460    0.43580    1.000
    C13      C        0.38894    0.10110    0.61270    1.000
    H13      H        0.37820    0.97920    0.62390    1.000
    C14      C        0.30020    0.14540    0.78150    1.000
    C15      C        0.25530    0.15030    0.66420    1.000
    H14      H        0.33400    0.07050    0.80030    1.000
    H15      H        0.25810    0.08950    0.60290    1.000
    N6       N        0.93619    0.34460    0.93580    1.000
    C16      C        0.88894    0.60110    0.11270    1.000
    H16      H        0.87820    0.47920    0.12390    1.000
    C17      C        0.80020    0.64540    0.28150    1.000
    C18      C        0.75530    0.65030    0.16420    1.000
    H17      H        0.83400    0.57050    0.30030    1.000
    H18      H        0.75810    0.58950    0.10290    1.000
    N7       N        0.56381    0.65540    0.43580    1.000
    C19      C        0.61106    0.39890    0.61270    1.000
    H19      H        0.62180    0.52080    0.62390    1.000
    C20      C        0.69980    0.35460    0.78150    1.000
    C21      C        0.74470    0.34970    0.66420    1.000
    H20      H        0.66600    0.42950    0.80030    1.000
    H21      H        0.74190    0.41050    0.60290    1.000
    N8       N        0.06381    0.15540    0.93580    1.000
    C22      C        0.11106    0.89890    0.11270    1.000
    H22      H        0.12180    0.02080    0.12390    1.000
    C23      C        0.19980    0.85460    0.28150    1.000
    C24      C        0.24470    0.84970    0.16420    1.000
    H23      H        0.16600    0.92950    0.30030    1.000
    H24      H        0.24190    0.91050    0.10290    1.000
    N9       N        0.43619    0.65540    0.43580    1.000
    C25      C        0.38894    0.39890    0.61270    1.000
    H25      H        0.37820    0.52080    0.62390    1.000
    C26      C        0.30020    0.35460    0.78150    1.000
    C27      C        0.25530    0.34970    0.66420    1.000
    H26      H        0.33400    0.42950    0.80030    1.000
    H27      H        0.25810    0.41050    0.60290    1.000
    N10      N        0.93619    0.15540    0.93580    1.000
    C28      C        0.88894    0.89890    0.11270    1.000
    H28      H        0.87820    0.02080    0.12390    1.000
    C29      C        0.80020    0.85460    0.28150    1.000
    C30      C        0.75530    0.84970    0.16420    1.000
    H29      H        0.83400    0.92950    0.30030    1.000
    H30      H        0.75810    0.91050    0.10290    1.000
    N11      N        0.56381    0.84460    0.43580    1.000
    C31      C        0.61106    0.10110    0.61270    1.000
    H31      H        0.62180    0.97920    0.62390    1.000
    C32      C        0.69980    0.14540    0.78150    1.000
    C33      C        0.74470    0.15030    0.66420    1.000
    H32      H        0.66600    0.07050    0.80030    1.000
    H33      H        0.74190    0.08950    0.60290    1.000
    N12      N        0.06381    0.34460    0.93580    1.000
    C34      C        0.11106    0.60110    0.11270    1.000
    H34      H        0.12180    0.47920    0.12390    1.000
    C35      C        0.19980    0.64540    0.28150    1.000
    C36      C        0.24470    0.65030    0.16420    1.000
    H35      H        0.16600    0.57050    0.30030    1.000
    H36      H        0.24190    0.58950    0.10290    1.000
    N13      N        0.56381    0.15540    0.56420    1.000
    C37      C        0.61106    0.89890    0.38730    1.000
    H37      H        0.62180    0.02080    0.37610    1.000
    C38      C        0.69980    0.85460    0.21850    1.000
    C39      C        0.74470    0.84970    0.33580    1.000
    H38      H        0.66600    0.92950    0.19970    1.000
    H39      H        0.74190    0.91050    0.39710    1.000
    N14      N        0.06381    0.65540    0.06420    1.000
    C40      C        0.11106    0.39890    0.88730    1.000
    H40      H        0.12180    0.52080    0.87610    1.000
    C41      C        0.19980    0.35460    0.71850    1.000
    C42      C        0.24470    0.34970    0.83580    1.000
    H41      H        0.16600    0.42950    0.69970    1.000
    H42      H        0.24190    0.41050    0.89710    1.000
    N15      N        0.43619    0.34460    0.56420    1.000
    C43      C        0.38894    0.60110    0.38730    1.000
    H43      H        0.37820    0.47920    0.37610    1.000
    C44      C        0.30020    0.64540    0.21850    1.000
    C45      C        0.25530    0.65030    0.33580    1.000
    H44      H        0.33400    0.57050    0.19970    1.000
    H45      H        0.25810    0.58950    0.39710    1.000
    N16      N        0.93619    0.84460    0.06420    1.000
    C46      C        0.88894    0.10110    0.88730    1.000
    H46      H        0.87820    0.97920    0.87610    1.000
    C47      C        0.80020    0.14540    0.71850    1.000
    C48      C        0.75530    0.15030    0.83580    1.000
    H47      H        0.83400    0.07050    0.69970    1.000
    H48      H        0.75810    0.08950    0.89710    1.000
    Cu1      Cu       0.50000    0.50000    0.50000    1.000
    Cu2      Cu       0.00000    0.00000    0.00000    1.000
    Cu3      Cu       0.50000    0.00000    0.50000    1.000
    Cu4      Cu       0.00000    0.50000    0.00000    1.000
    N17      N        0.64210    0.75000    0.35570    1.000
    C49      C        0.69830    0.75000    0.30320    1.000
    N18      N        0.14210    0.25000    0.85570    1.000
    C50      C        0.19830    0.25000    0.80320    1.000
    N19      N        0.35790    0.75000    0.35570    1.000
    C51      C        0.30170    0.75000    0.30320    1.000
    N20      N        0.85790    0.25000    0.85570    1.000
    C52      C        0.80170    0.25000    0.80320    1.000
    N21      N        0.35790    0.25000    0.64430    1.000
    C53      C        0.30170    0.25000    0.69680    1.000
    N22      N        0.85790    0.75000    0.14430    1.000
    C54      C        0.80170    0.75000    0.19680    1.000
    N23      N        0.64210    0.25000    0.64430    1.000
    C55      C        0.69830    0.25000    0.69680    1.000
    N24      N        0.14210    0.75000    0.14430    1.000
    C56      C        0.19830    0.75000    0.19680    1.000
