# CIF file generated by openbabel 3.1.0, see https://openbabel.org
data_I
_chemical_name_common 'image0'
_cell_length_a 24.258
_cell_length_b 9.4877
_cell_length_c 16.473
_cell_angle_alpha 90
_cell_angle_beta 118.79
_cell_angle_gamma 90
_space_group_name_H-M_alt 'P 1'
_space_group_name_Hall 'P 1'
loop_
    _symmetry_equiv_pos_as_xyz
    x,y,z
loop_
    _atom_site_label
    _atom_site_type_symbol
    _atom_site_fract_x
    _atom_site_fract_y
    _atom_site_fract_z
    _atom_site_occupancy
    Cu1      Cu       0.04272    0.17662    0.03882    1.000
    Cu2      Cu       0.04255    0.38483    0.37785    1.000
    N1       N        0.13703    0.01860    0.53000    1.000
    N2       N        0.07927    0.00660    0.52160    1.000
    N3       N        0.04633    0.11980    0.48290    1.000
    N4       N        0.08149    0.21000    0.46400    1.000
    N5       N        0.08264    0.31830    0.29880    1.000
    N6       N        0.04816    0.30150    0.20690    1.000
    N7       N        0.08206    0.23660    0.17640    1.000
    N8       N        0.13992    0.21090    0.24760    1.000
    N9       N        0.04400    0.43450    0.92880    1.000
    C1       C        0.25090    0.30280    0.42300    1.000
    H1       H        0.25140    0.33900    0.37090    1.000
    C2       C        0.19370    0.25660    0.41470    1.000
    C3       C        0.19280    0.20310    0.49380    1.000
    C4       C        0.13670    0.14500    0.49340    1.000
    C5       C        0.13790    0.26080    0.32160    1.000
    C6       C        0.04360    0.33190    0.96370    1.000
    Cu3      Cu       0.54272    0.67662    0.03882    1.000
    Cu4      Cu       0.54255    0.88483    0.37785    1.000
    N10      N        0.63703    0.51860    0.53000    1.000
    N11      N        0.57927    0.50660    0.52160    1.000
    N12      N        0.54633    0.61980    0.48290    1.000
    N13      N        0.58149    0.71000    0.46400    1.000
    N14      N        0.58264    0.81830    0.29880    1.000
    N15      N        0.54816    0.80150    0.20690    1.000
    N16      N        0.58206    0.73660    0.17640    1.000
    N17      N        0.63992    0.71090    0.24760    1.000
    N18      N        0.54400    0.93450    0.92880    1.000
    C7       C        0.75090    0.80280    0.42300    1.000
    H2       H        0.75140    0.83900    0.37090    1.000
    C8       C        0.69370    0.75660    0.41470    1.000
    C9       C        0.69280    0.70310    0.49380    1.000
    C10      C        0.63670    0.64500    0.49340    1.000
    C11      C        0.63790    0.76080    0.32160    1.000
    C12      C        0.54360    0.83190    0.96370    1.000
    Cu5      Cu       0.95728    0.17662    0.46118    1.000
    Cu6      Cu       0.95745    0.38483    0.12215    1.000
    N19      N        0.86297    0.01860    0.97000    1.000
    N20      N        0.92073    0.00660    0.97840    1.000
    N21      N        0.95367    0.11980    0.01710    1.000
    N22      N        0.91851    0.21000    0.03600    1.000
    N23      N        0.91736    0.31830    0.20120    1.000
    N24      N        0.95184    0.30150    0.29310    1.000
    N25      N        0.91794    0.23660    0.32360    1.000
    N26      N        0.86008    0.21090    0.25240    1.000
    N27      N        0.95600    0.43450    0.57120    1.000
    C13      C        0.74910    0.30280    0.07700    1.000
    H3       H        0.74860    0.33900    0.12910    1.000
    C14      C        0.80630    0.25660    0.08530    1.000
    C15      C        0.80720    0.20310    0.00620    1.000
    C16      C        0.86330    0.14500    0.00660    1.000
    C17      C        0.86210    0.26080    0.17840    1.000
    C18      C        0.95640    0.33190    0.53630    1.000
    Cu7      Cu       0.45728    0.67662    0.46118    1.000
    Cu8      Cu       0.45745    0.88483    0.12215    1.000
    N28      N        0.36297    0.51860    0.97000    1.000
    N29      N        0.42073    0.50660    0.97840    1.000
    N30      N        0.45367    0.61980    0.01710    1.000
    N31      N        0.41851    0.71000    0.03600    1.000
    N32      N        0.41736    0.81830    0.20120    1.000
    N33      N        0.45184    0.80150    0.29310    1.000
    N34      N        0.41794    0.73660    0.32360    1.000
    N35      N        0.36008    0.71090    0.25240    1.000
    N36      N        0.45600    0.93450    0.57120    1.000
    C19      C        0.24910    0.80280    0.07700    1.000
    H4       H        0.24860    0.83900    0.12910    1.000
    C20      C        0.30630    0.75660    0.08530    1.000
    C21      C        0.30720    0.70310    0.00620    1.000
    C22      C        0.36330    0.64500    0.00660    1.000
    C23      C        0.36210    0.76080    0.17840    1.000
    C24      C        0.45640    0.83190    0.53630    1.000
    Cu9      Cu       0.95728    0.82338    0.96118    1.000
    Cu10     Cu       0.95745    0.61517    0.62215    1.000
    N37      N        0.86297    0.98140    0.47000    1.000
    N38      N        0.92073    0.99340    0.47840    1.000
    N39      N        0.95367    0.88020    0.51710    1.000
    N40      N        0.91851    0.79000    0.53600    1.000
    N41      N        0.91736    0.68170    0.70120    1.000
    N42      N        0.95184    0.69850    0.79310    1.000
    N43      N        0.91794    0.76340    0.82360    1.000
    N44      N        0.86008    0.78910    0.75240    1.000
    N45      N        0.95600    0.56550    0.07120    1.000
    C25      C        0.74910    0.69720    0.57700    1.000
    H5       H        0.74860    0.66100    0.62910    1.000
    C26      C        0.80630    0.74340    0.58530    1.000
    C27      C        0.80720    0.79690    0.50620    1.000
    C28      C        0.86330    0.85500    0.50660    1.000
    C29      C        0.86210    0.73920    0.67840    1.000
    C30      C        0.95640    0.66810    0.03630    1.000
    Cu11     Cu       0.45728    0.32338    0.96118    1.000
    Cu12     Cu       0.45745    0.11517    0.62215    1.000
    N46      N        0.36297    0.48140    0.47000    1.000
    N47      N        0.42073    0.49340    0.47840    1.000
    N48      N        0.45367    0.38020    0.51710    1.000
    N49      N        0.41851    0.29000    0.53600    1.000
    N50      N        0.41736    0.18170    0.70120    1.000
    N51      N        0.45184    0.19850    0.79310    1.000
    N52      N        0.41794    0.26340    0.82360    1.000
    N53      N        0.36008    0.28910    0.75240    1.000
    N54      N        0.45600    0.06550    0.07120    1.000
    C31      C        0.24910    0.19720    0.57700    1.000
    H6       H        0.24860    0.16100    0.62910    1.000
    C32      C        0.30630    0.24340    0.58530    1.000
    C33      C        0.30720    0.29690    0.50620    1.000
    C34      C        0.36330    0.35500    0.50660    1.000
    C35      C        0.36210    0.23920    0.67840    1.000
    C36      C        0.45640    0.16810    0.03630    1.000
    Cu13     Cu       0.04272    0.82338    0.53882    1.000
    Cu14     Cu       0.04255    0.61517    0.87785    1.000
    N55      N        0.13703    0.98140    0.03000    1.000
    N56      N        0.07927    0.99340    0.02160    1.000
    N57      N        0.04633    0.88020    0.98290    1.000
    N58      N        0.08149    0.79000    0.96400    1.000
    N59      N        0.08264    0.68170    0.79880    1.000
    N60      N        0.04816    0.69850    0.70690    1.000
    N61      N        0.08206    0.76340    0.67640    1.000
    N62      N        0.13992    0.78910    0.74760    1.000
    N63      N        0.04400    0.56550    0.42880    1.000
    C37      C        0.25090    0.69720    0.92300    1.000
    H7       H        0.25140    0.66100    0.87090    1.000
    C38      C        0.19370    0.74340    0.91470    1.000
    C39      C        0.19280    0.79690    0.99380    1.000
    C40      C        0.13670    0.85500    0.99340    1.000
    C41      C        0.13790    0.73920    0.82160    1.000
    C42      C        0.04360    0.66810    0.46370    1.000
    Cu15     Cu       0.54272    0.32338    0.53882    1.000
    Cu16     Cu       0.54255    0.11517    0.87785    1.000
    N64      N        0.63703    0.48140    0.03000    1.000
    N65      N        0.57927    0.49340    0.02160    1.000
    N66      N        0.54633    0.38020    0.98290    1.000
    N67      N        0.58149    0.29000    0.96400    1.000
    N68      N        0.58264    0.18170    0.79880    1.000
    N69      N        0.54816    0.19850    0.70690    1.000
    N70      N        0.58206    0.26340    0.67640    1.000
    N71      N        0.63992    0.28910    0.74760    1.000
    N72      N        0.54400    0.06550    0.42880    1.000
    C43      C        0.75090    0.19720    0.92300    1.000
    H8       H        0.75140    0.16100    0.87090    1.000
    C44      C        0.69370    0.24340    0.91470    1.000
    C45      C        0.69280    0.29690    0.99380    1.000
    C46      C        0.63670    0.35500    0.99340    1.000
    C47      C        0.63790    0.23920    0.82160    1.000
    C48      C        0.54360    0.16810    0.46370    1.000
