# CIF file generated by openbabel 3.1.0, see https://openbabel.org
data_I
_chemical_name_common 'mostly_converged_ja5103103_si_002'
_cell_length_a 38.4265
_cell_length_b 38.4265
_cell_length_c 38.4265
_cell_angle_alpha 90
_cell_angle_beta 90
_cell_angle_gamma 90
_space_group_name_H-M_alt 'P 1'
_space_group_name_Hall 'P 1'
loop_
    _symmetry_equiv_pos_as_xyz
    x,y,z
loop_
    _atom_site_label
    _atom_site_type_symbol
    _atom_site_fract_x
    _atom_site_fract_y
    _atom_site_fract_z
    _atom_site_occupancy
    C1       C        0.26205    0.07435    0.02415    1.000
    C2       C        0.26896    0.11006    0.01241    1.000
    H3       H        0.27377    0.13272    0.02840    1.000
    C4       C        0.24077    0.92842    0.97294    1.000
    C5       C        0.23387    0.89270    0.98465    1.000
    H6       H        0.22883    0.87011    0.96863    1.000
    C7       C        0.24759    0.97056    0.92468    1.000
    C8       C        0.24964    0.98128    0.88830    1.000
    H9       H        0.24905    0.96533    0.86513    1.000
    C10      C        0.25511    0.03224    0.07244    1.000
    C11      C        0.25296    0.02152    0.10881    1.000
    H12      H        0.25329    0.03752    0.13196    1.000
    C13      C        0.26221    0.07434    0.96754    1.000
    C14      C        0.26897    0.11013    0.97828    1.000
    H15      H        0.27370    0.13267    0.96206    1.000
    C16      C        0.24113    0.92829    0.02957    1.000
    C17      C        0.23414    0.89255    0.01878    1.000
    H18      H        0.22941    0.86998    0.03496    1.000
    C19      C        0.25324    0.02695    0.92480    1.000
    C20      C        0.25215    0.01528    0.88842    1.000
    H21      H        0.25348    0.03105    0.86518    1.000
    C22      C        0.24998    0.97573    0.07235    1.000
    C23      C        0.25080    0.98747    0.10871    1.000
    H24      H        0.24951    0.97170    0.13196    1.000
    Fe25     Fe       0.25156    0.00135    0.99857    1.000
    C26      C        0.25873    0.06523    0.06143    1.000
    C27      C        0.24372    0.93763    0.93565    1.000
    C28      C        0.25816    0.06390    0.93448    1.000
    C29      C        0.24517    0.93870    0.06266    1.000
    N30      N        0.25909    0.05311    0.99789    1.000
    N31      N        0.24405    0.94958    0.99924    1.000
    N32      N        0.25042    0.00078    0.94620    1.000
    N33      N        0.25268    0.00193    0.05095    1.000
    C34      C        0.76383    0.57119    0.52438    1.000
    C35      C        0.76965    0.60735    0.51348    1.000
    H36      H        0.77426    0.62968    0.52998    1.000
    C37      C        0.74622    0.42587    0.46960    1.000
    C38      C        0.74040    0.38973    0.48054    1.000
    H39      H        0.73561    0.36741    0.46407    1.000
    C40      C        0.75076    0.46952    0.42233    1.000
    C41      C        0.75165    0.48131    0.38623    1.000
    H42      H        0.75094    0.46597    0.36265    1.000
    C43      C        0.75905    0.52764    0.57167    1.000
    C44      C        0.75783    0.51593    0.60777    1.000
    H45      H        0.75822    0.53131    0.63133    1.000
    C46      C        0.76302    0.57268    0.46773    1.000
    C47      C        0.76912    0.60832    0.47936    1.000
    H48      H        0.77315    0.63139    0.46372    1.000
    C49      C        0.74733    0.42435    0.52631    1.000
    C50      C        0.74110    0.38874    0.51467    1.000
    H51      H        0.73702    0.36568    0.53031    1.000
    C52      C        0.75487    0.52612    0.42386    1.000
    C53      C        0.75325    0.51537    0.38723    1.000
    H54      H        0.75355    0.53178    0.36440    1.000
    C55      C        0.75517    0.47102    0.57019    1.000
    C56      C        0.75642    0.48186    0.60681    1.000
    H57      H        0.75597    0.46548    0.62967    1.000
    Fe58     Fe       0.75515    0.49853    0.49701    1.000
    C59      C        0.76157    0.56104    0.56152    1.000
    C60      C        0.74782    0.43614    0.43242    1.000
    C61      C        0.75889    0.56304    0.43439    1.000
    C62      C        0.75095    0.43409    0.55970    1.000
    N63      N        0.76094    0.55057    0.49758    1.000
    N64      N        0.74941    0.44646    0.49642    1.000
    N65      N        0.75329    0.49928    0.44460    1.000
    N66      N        0.75696    0.49782    0.54941    1.000
    C67      C        0.74421    0.96801    0.07137    1.000
    C68      C        0.74551    0.97924    0.10763    1.000
    H69      H        0.74553    0.96352    0.13097    1.000
    C70      C        0.74966    0.02838    0.92284    1.000
    C71      C        0.74856    0.01711    0.88658    1.000
    H72      H        0.74866    0.03282    0.86323    1.000
    C73      C        0.75404    0.07142    0.97067    1.000
    C74      C        0.75928    0.10752    0.98205    1.000
    H75      H        0.76343    0.13015    0.96584    1.000
    C76      C        0.73988    0.92500    0.02352    1.000
    C77      C        0.73485    0.88887    0.01213    1.000
    H78      H        0.73087    0.86620    0.02834    1.000
    C79      C        0.74721    0.02470    0.07067    1.000
    C80      C        0.74644    0.01334    0.10714    1.000
    H81      H        0.74685    0.02942    0.13022    1.000
    C82      C        0.74677    0.97169    0.92355    1.000
    C83      C        0.74768    0.98302    0.88708    1.000
    H84      H        0.74744    0.96695    0.86400    1.000
    C85      C        0.75361    0.07211    0.02738    1.000
    C86      C        0.75899    0.10801    0.01619    1.000
    H87      H        0.76281    0.13092    0.03210    1.000
    C88      C        0.74037    0.92431    0.96683    1.000
    C89      C        0.73522    0.88838    0.97800    1.000
    H90      H        0.73163    0.86544    0.96206    1.000
    Fe91     Fe       0.74688    0.99821    0.99710    1.000
    C92      C        0.74198    0.93472    0.06079    1.000
    C93      C        0.75219    0.06165    0.93339    1.000
    C94      C        0.75050    0.06185    0.06066    1.000
    C95      C        0.74377    0.93454    0.93357    1.000
    N96      N        0.74572    0.99816    0.04953    1.000
    N97      N        0.74803    0.99825    0.94469    1.000
    N98      N        0.75159    0.05039    0.99722    1.000
    N99      N        0.74217    0.94605    0.99698    1.000
    C100     C        0.24359    0.46663    0.57220    1.000
    C101     C        0.24553    0.47680    0.60874    1.000
    H102     H        0.24564    0.46041    0.63161    1.000
    C103     C        0.24654    0.53088    0.42538    1.000
    C104     C        0.24447    0.52062    0.38886    1.000
    H105     H        0.24403    0.53696    0.36595    1.000
    C106     C        0.25240    0.57258    0.47424    1.000
    C107     C        0.25817    0.60832    0.48644    1.000
    H108     H        0.26210    0.63135    0.47073    1.000
    C109     C        0.23812    0.42498    0.52330    1.000
    C110     C        0.23279    0.38917    0.51106    1.000
    H111     H        0.22908    0.36608    0.52673    1.000
    C112     C        0.24718    0.52327    0.57304    1.000
    C113     C        0.24683    0.51089    0.60920    1.000
    H114     H        0.24772    0.52631    0.63271    1.000
    C115     C        0.24342    0.47427    0.42462    1.000
    C116     C        0.24345    0.48655    0.38845    1.000
    H117     H        0.24251    0.47109    0.36497    1.000
    C118     C        0.25322    0.57178    0.53094    1.000
    C119     C        0.25866    0.60791    0.52058    1.000
    H120     H        0.26300    0.63037    0.53701    1.000
    C121     C        0.23762    0.42581    0.46669    1.000
    C122     C        0.23258    0.38960    0.47694    1.000
    H123     H        0.22870    0.36710    0.46044    1.000
    Fe124    Fe       0.24518    0.49880    0.49881    1.000
    C125     C        0.24099    0.43370    0.56070    1.000
    C126     C        0.24960    0.56378    0.43679    1.000
    C127     C        0.25072    0.56064    0.56400    1.000
    C128     C        0.24056    0.43693    0.43372    1.000
    N129     N        0.24504    0.49735    0.55120    1.000
    N130     N        0.24528    0.50022    0.44643    1.000
    N131     N        0.25035    0.55089    0.50027    1.000
    N132     N        0.24001    0.44673    0.49734    1.000
    C133     C        0.07387    0.25523    0.02510    1.000
    C134     C        0.10951    0.26052    0.01308    1.000
    H135     H        0.13256    0.26571    0.02839    1.000
    C136     C        0.92535    0.25376    0.96722    1.000
    C137     C        0.88972    0.25965    0.97896    1.000
    H138     H        0.86669    0.26434    0.96344    1.000
    C139     C        0.97196    0.24549    0.92363    1.000
    C140     C        0.98253    0.23823    0.88762    1.000
    H141     H        0.96583    0.23366    0.86543    1.000
    C142     C        0.02723    0.24906    0.06908    1.000
    C143     C        0.01662    0.24353    0.10539    1.000
    H144     H        0.03329    0.24009    0.12781    1.000
    C145     C        0.07232    0.25216    0.96856    1.000
    C146     C        0.10853    0.25855    0.97900    1.000
    H147     H        0.13086    0.26205    0.96222    1.000
    C148     C        0.92685    0.25290    0.02378    1.000
    C149     C        0.89065    0.25897    0.01307    1.000
    H150     H        0.86833    0.26320    0.02968    1.000
    C151     C        0.02850    0.24360    0.92216    1.000
    C152     C        0.01662    0.23695    0.88670    1.000
    H153     H        0.03204    0.23135    0.86381    1.000
    C154     C        0.97067    0.24697    0.07058    1.000
    C155     C        0.98252    0.24214    0.10633    1.000
    H156     H        0.96709    0.23758    0.12945    1.000
    Fe157    Fe       0.99960    0.24994    0.99627    1.000
    C158     C        0.06408    0.25287    0.05853    1.000
    C159     C        0.93517    0.25004    0.93395    1.000
    C160     C        0.06182    0.24720    0.93184    1.000
    C161     C        0.93730    0.24952    0.06066    1.000
    N162     N        0.05181    0.25108    0.99551    1.000
    N163     N        0.94739    0.25074    0.99694    1.000
    N164     N        0.99885    0.24768    0.94411    1.000
    N165     N        0.00034    0.25022    0.04850    1.000
    C166     C        0.57509    0.75758    0.52997    1.000
    C167     C        0.61065    0.76268    0.51762    1.000
    H168     H        0.63402    0.76694    0.53275    1.000
    C169     C        0.42582    0.76134    0.47453    1.000
    C170     C        0.39046    0.76745    0.48695    1.000
    H171     H        0.36731    0.77299    0.47190    1.000
    C172     C        0.47159    0.75358    0.42989    1.000
    C173     C        0.48146    0.74748    0.39347    1.000
    H174     H        0.46435    0.74396    0.37140    1.000
    C175     C        0.52897    0.75080    0.57448    1.000
    C176     C        0.51879    0.74423    0.61074    1.000
    H177     H        0.53574    0.73960    0.63273    1.000
    C178     C        0.57271    0.75660    0.47341    1.000
    C179     C        0.60917    0.76197    0.48353    1.000
    H180     H        0.63131    0.76572    0.46656    1.000
    C181     C        0.42806    0.75860    0.53098    1.000
    C182     C        0.39185    0.76570    0.52100    1.000
    H183     H        0.36983    0.76977    0.53805    1.000
    C184     C        0.52809    0.75085    0.42738    1.000
    C185     C        0.51552    0.74570    0.39192    1.000
    H186     H        0.53045    0.74064    0.36858    1.000
    C187     C        0.47235    0.75005    0.57688    1.000
    C188     C        0.48467    0.74365    0.61222    1.000
    H189     H        0.46951    0.73863    0.63542    1.000
    Fe190    Fe       0.50035    0.75502    0.50220    1.000
    C191     C        0.56576    0.75402    0.56342    1.000
    C192     C        0.43502    0.75806    0.44104    1.000
    C193     C        0.56167    0.75307    0.43667    1.000
    C194     C        0.43885    0.75343    0.56756    1.000
    N195     N        0.55254    0.75498    0.50060    1.000
    N196     N        0.44821    0.75704    0.50380    1.000
    N197     N        0.49885    0.75469    0.44997    1.000
    N198     N        0.50179    0.75342    0.55442    1.000
    C199     C        0.02948    0.73704    0.92609    1.000
    C200     C        0.01694    0.73085    0.89079    1.000
    H201     H        0.03189    0.72482    0.86770    1.000
    C202     C        0.97329    0.74227    0.07528    1.000
    C203     C        0.98553    0.73709    0.11086    1.000
    H204     H        0.97033    0.73292    0.13419    1.000
    C205     C        0.92920    0.74984    0.02900    1.000
    C206     C        0.89322    0.75754    0.01863    1.000
    H207     H        0.87126    0.76276    0.03545    1.000
    C208     C        0.07404    0.74451    0.97193    1.000
    C209     C        0.11045    0.75040    0.98198    1.000
    H210     H        0.13264    0.75369    0.96499    1.000
    C211     C        0.97304    0.74087    0.92829    1.000
    C212     C        0.98292    0.73327    0.89214    1.000
    H213     H        0.96581    0.72934    0.87014    1.000
    C214     C        0.02992    0.74292    0.07300    1.000
    C215     C        0.01965    0.73767    0.10945    1.000
    H216     H        0.03657    0.73391    0.13163    1.000
    C217     C        0.92723    0.75103    0.97241    1.000
    C218     C        0.89200    0.75842    0.98452    1.000
    H219     H        0.86908    0.76422    0.96924    1.000
    C220     C        0.07624    0.74773    0.02845    1.000
    C221     C        0.11181    0.75246    0.01604    1.000
    H222     H        0.13510    0.75749    0.03105    1.000
    Fe223    Fe       0.00156    0.74436    0.00057    1.000
    C224     C        0.06305    0.73999    0.93525    1.000
    C225     C        0.93985    0.74598    0.06584    1.000
    C226     C        0.93659    0.74705    0.93902    1.000
    C227     C        0.06671    0.74606    0.06200    1.000
    N228     N        0.00023    0.74202    0.94843    1.000
    N229     N        0.00279    0.74471    0.05279    1.000
    N230     N        0.94939    0.74694    0.00192    1.000
    N231     N        0.05380    0.74380    0.99913    1.000
    C232     C        0.52597    0.23805    0.42067    1.000
    C233     C        0.51273    0.23377    0.38535    1.000
    H234     H        0.52720    0.22876    0.36171    1.000
    C235     C        0.47312    0.23739    0.57104    1.000
    C236     C        0.48603    0.23082    0.60615    1.000
    H237     H        0.47126    0.22610    0.62965    1.000
    C238     C        0.42806    0.24714    0.52608    1.000
    C239     C        0.39185    0.25521    0.51685    1.000
    H240     H        0.37027    0.25966    0.53437    1.000
    C241     C        0.57153    0.24290    0.46586    1.000
    C242     C        0.60820    0.24820    0.47530    1.000
    H243     H        0.63003    0.25205    0.45797    1.000
    C244     C        0.46964    0.24242    0.42413    1.000
    C245     C        0.47877    0.23650    0.38747    1.000
    H246     H        0.46122    0.23384    0.36562    1.000
    C247     C        0.52963    0.23747    0.56757    1.000
    C248     C        0.52011    0.23101    0.60402    1.000
    H249     H        0.53747    0.22631    0.62568    1.000
    C250     C        0.42480    0.25063    0.46963    1.000
    C251     C        0.38986    0.25748    0.48283    1.000
    H252     H        0.36659    0.26385    0.46832    1.000
    C253     C        0.57499    0.24386    0.52232    1.000
    C254     C        0.61031    0.24894    0.50935    1.000
    H255     H        0.63395    0.25330    0.52402    1.000
    Fe256    Fe       0.49970    0.24227    0.49591    1.000
    C257     C        0.55971    0.23999    0.42935    1.000
    C258     C        0.43959    0.24193    0.56248    1.000
    C259     C        0.43344    0.24825    0.43588    1.000
    C260     C        0.56617    0.24094    0.55593    1.000
    N261     N        0.49722    0.24232    0.44377    1.000
    N262     N        0.50212    0.24028    0.54802    1.000
    N263     N        0.44761    0.24527    0.49845    1.000
    N264     N        0.55188    0.24122    0.49340    1.000
    C265     C        0.07450    0.02698    0.24545    1.000
    C266     C        0.11009    0.01377    0.24579    1.000
    H267     H        0.13423    0.02821    0.24462    1.000
    C268     C        0.92339    0.97509    0.24336    1.000
    C269     C        0.88821    0.98797    0.23714    1.000
    H270     H        0.86458    0.97321    0.23312    1.000
    C271     C        0.96826    0.92987    0.25321    1.000
    C272     C        0.97724    0.89341    0.26047    1.000
    H273     H        0.95958    0.87188    0.26454    1.000
    C274     C        0.02923    0.07291    0.24338    1.000
    C275     C        0.02004    0.11001    0.24268    1.000
    H276     H        0.03753    0.13205    0.24209    1.000
    C277     C        0.07063    0.97060    0.24928    1.000
    C278     C        0.10769    0.97979    0.24742    1.000
    H279     H        0.12980    0.96241    0.24729    1.000
    C280     C        0.92705    0.03158    0.24203    1.000
    C281     C        0.89045    0.02203    0.23657    1.000
    H282     H        0.86877    0.03935    0.23182    1.000
    C283     C        0.02467    0.92600    0.25598    1.000
    C284     C        0.01125    0.89102    0.26208    1.000
    H285     H        0.02565    0.86744    0.26755    1.000
    C286     C        0.97271    0.07695    0.24320    1.000
    C287     C        0.98603    0.11251    0.24339    1.000
    H288     H        0.97168    0.13672    0.24387    1.000
    Fe289    Fe       0.99880    0.00125    0.24701    1.000
    C290     C        0.06575    0.06073    0.24433    1.000
    C291     C        0.93199    0.94154    0.24763    1.000
    C292     C        0.05848    0.93423    0.25347    1.000
    C293     C        0.93888    0.06823    0.24277    1.000
    N294     N        0.05104    0.99827    0.24773    1.000
    N295     N        0.94659    0.00405    0.24521    1.000
    N296     N        0.99599    0.94925    0.25159    1.000
    N297     N        0.00153    0.05339    0.24343    1.000
    C298     C        0.57822    0.52153    0.74679    1.000
    C299     C        0.61317    0.50807    0.74050    1.000
    H300     H        0.63699    0.52243    0.73610    1.000
    C301     C        0.42646    0.47174    0.74854    1.000
    C302     C        0.39107    0.48549    0.74864    1.000
    H303     H        0.36672    0.47145    0.74702    1.000
    C304     C        0.47100    0.42519    0.74697    1.000
    C305     C        0.47967    0.38797    0.74664    1.000
    H306     H        0.46189    0.36617    0.74587    1.000
    C307     C        0.53407    0.56736    0.75675    1.000
    C308     C        0.52559    0.60391    0.76415    1.000
    H309     H        0.54354    0.62524    0.76801    1.000
    C310     C        0.57374    0.46512    0.74627    1.000
    C311     C        0.61045    0.47405    0.74049    1.000
    H312     H        0.63185    0.45635    0.73586    1.000
    C313     C        0.43120    0.52794    0.75311    1.000
    C314     C        0.39400    0.51938    0.75079    1.000
    H315     H        0.37217    0.53712    0.75067    1.000
    C316     C        0.52741    0.42042    0.74775    1.000
    C317     C        0.51362    0.38502    0.74795    1.000
    H318     H        0.52766    0.36064    0.74877    1.000
    C319     C        0.47779    0.57184    0.76016    1.000
    C320     C        0.49163    0.60667    0.76615    1.000
    H321     H        0.47752    0.63040    0.77172    1.000
    Fe322    Fe       0.50251    0.49639    0.75088    1.000
    C323     C        0.57012    0.55523    0.75078    1.000
    C324     C        0.43469    0.43791    0.74727    1.000
    C325     C        0.56131    0.42872    0.74738    1.000
    C326     C        0.44392    0.56399    0.75765    1.000
    N327     N        0.55463    0.49294    0.74919    1.000
    N328     N        0.45034    0.50002    0.75143    1.000
    N329     N        0.49896    0.44433    0.74741    1.000
    N330     N        0.50611    0.54830    0.75544    1.000
    C331     C        0.97565    0.07226    0.74682    1.000
    C332     C        0.98836    0.10802    0.74666    1.000
    H333     H        0.97357    0.13195    0.74559    1.000
    C334     C        0.02978    0.92181    0.74431    1.000
    C335     C        0.01719    0.88644    0.73853    1.000
    H336     H        0.03214    0.86293    0.73451    1.000
    C337     C        0.07456    0.96729    0.75310    1.000
    C338     C        0.11102    0.97693    0.75943    1.000
    H339     H        0.13292    0.95968    0.76326    1.000
    C340     C        0.93039    0.02641    0.74602    1.000
    C341     C        0.89343    0.01668    0.74640    1.000
    H342     H        0.87114    0.03386    0.74648    1.000
    C343     C        0.03210    0.06912    0.74955    1.000
    C344     C        0.02239    0.10607    0.74768    1.000
    H345     H        0.03947    0.12841    0.74707    1.000
    C346     C        0.97325    0.92485    0.74368    1.000
    C347     C        0.98311    0.88831    0.73836    1.000
    H348     H        0.96596    0.86640    0.73404    1.000
    C349     C        0.07757    0.02380    0.75522    1.000
    C350     C        0.11290    0.01100    0.76061    1.000
    H351     H        0.13635    0.02585    0.76539    1.000
    C352     C        0.92726    0.96989    0.74600    1.000
    C353     C        0.89149    0.98264    0.74714    1.000
    H354     H        0.86755    0.96788    0.74826    1.000
    Fe355    Fe       0.00258    0.99691    0.74806    1.000
    C356     C        0.94202    0.06309    0.74636    1.000
    C357     C        0.06328    0.93073    0.74842    1.000
    C358     C        0.06867    0.05745    0.75291    1.000
    C359     C        0.93652    0.93624    0.74526    1.000
    N360     N        0.00471    0.04918    0.74869    1.000
    N361     N        0.00058    0.94471    0.74630    1.000
    N362     N        0.05472    0.99473    0.75157    1.000
    N363     N        0.95034    0.99902    0.74562    1.000
    C364     C        0.47045    0.57847    0.24378    1.000
    C365     C        0.48343    0.61414    0.24404    1.000
    H366     H        0.46879    0.63818    0.24383    1.000
    C367     C        0.52399    0.42766    0.23852    1.000
    C368     C        0.51110    0.39243    0.23264    1.000
    H369     H        0.52585    0.36888    0.22808    1.000
    C370     C        0.56909    0.47281    0.24701    1.000
    C371     C        0.60567    0.48222    0.25295    1.000
    H372     H        0.62753    0.46485    0.25642    1.000
    C373     C        0.42499    0.53280    0.24316    1.000
    C374     C        0.38802    0.52313    0.24407    1.000
    H375     H        0.36576    0.54034    0.24462    1.000
    C376     C        0.52701    0.57494    0.24523    1.000
    C377     C        0.51748    0.61196    0.24427    1.000
    H378     H        0.53472    0.63418    0.24382    1.000
    C379     C        0.46748    0.43101    0.23910    1.000
    C380     C        0.47704    0.39448    0.23319    1.000
    H381     H        0.45970    0.37270    0.22901    1.000
    C382     C        0.57237    0.52928    0.24955    1.000
    C383     C        0.60771    0.51626    0.25440    1.000
    H384     H        0.63129    0.53093    0.25909    1.000
    C385     C        0.42170    0.47623    0.24273    1.000
    C386     C        0.38601    0.48908    0.24461    1.000
    H387     H        0.36205    0.47438    0.24603    1.000
    Fe388    Fe       0.49714    0.50291    0.24350    1.000
    C389     C        0.43671    0.56950    0.24390    1.000
    C390     C        0.55762    0.43631    0.24225    1.000
    C391     C        0.56360    0.56300    0.24777    1.000
    C392     C        0.43086    0.44255    0.24172    1.000
    N393     N        0.49947    0.55518    0.24461    1.000
    N394     N        0.49494    0.45072    0.24128    1.000
    N395     N        0.54934    0.50037    0.24597    1.000
    N396     N        0.44486    0.50532    0.24211    1.000
    O397     O        0.20040    0.25340    0.15735    1.000
    O398     O        0.23526    0.28447    0.14581    1.000
    O399     O        0.25335    0.16249    0.19716    1.000
    O400     O        0.29061    0.15733    0.23817    1.000
    O401     O        0.16034    0.19857    0.24612    1.000
    O402     O        0.15472    0.24845    0.28856    1.000
    O403     O        0.33957    0.25754    0.29630    1.000
    O404     O        0.34689    0.21659    0.25852    1.000
    O405     O        0.29479    0.34217    0.24486    1.000
    O406     O        0.25715    0.35736    0.22024    1.000
    O407     O        0.24859    0.30077    0.33617    1.000
    O408     O        0.20624    0.24528    0.33703    1.000
    O409     O        0.29659    0.25323    0.33736    1.000
    O410     O        0.25913    0.22572    0.35253    1.000
    O411     O        0.24441    0.34106    0.29289    1.000
    O412     O        0.20566    0.34046    0.23568    1.000
    O413     O        0.33837    0.30226    0.25173    1.000
    O414     O        0.34365    0.25665    0.20793    1.000
    O415     O        0.15783    0.24973    0.19894    1.000
    O416     O        0.14243    0.27613    0.24044    1.000
    O417     O        0.20405    0.15832    0.24274    1.000
    O418     O        0.24167    0.15140    0.28030    1.000
    O419     O        0.25022    0.20636    0.15721    1.000
    O420     O        0.28985    0.25462    0.15603    1.000
    Zr421    Zr       0.24521    0.25160    0.18885    1.000
    O422     O        0.28184    0.28422    0.21216    1.000
    Zr423    Zr       0.24758    0.19151    0.24300    1.000
    O424     O        0.28017    0.21791    0.27840    1.000
    Zr425    Zr       0.18818    0.24594    0.24469    1.000
    O426     O        0.21357    0.28249    0.27779    1.000
    Zr427    Zr       0.30904    0.25597    0.25099    1.000
    O428     O        0.28390    0.22177    0.21506    1.000
    Zr429    Zr       0.25019    0.30999    0.24744    1.000
    O430     O        0.21285    0.28624    0.21574    1.000
    Zr431    Zr       0.25116    0.25488    0.30656    1.000
    O432     O        0.21850    0.21787    0.28159    1.000
    O433     O        0.21286    0.21410    0.20945    1.000
    O434     O        0.28424    0.29067    0.28422    1.000
    C435     C        0.16811    0.25242    0.16695    1.000
    C436     C        0.25369    0.17389    0.16560    1.000
    C437     C        0.17163    0.16691    0.24513    1.000
    C438     C        0.32894    0.25514    0.32814    1.000
    C439     C        0.32728    0.33378    0.24790    1.000
    C440     C        0.24558    0.33236    0.32538    1.000
    H441     H        0.29509    0.30013    0.19679    1.000
    H442     H        0.19747    0.29706    0.29165    1.000
    H443     H        0.19864    0.19942    0.19364    1.000
    H444     H        0.29433    0.20284    0.29373    1.000
    H445     H        0.34368    0.19962    0.23941    1.000
    H446     H        0.30223    0.15555    0.26107    1.000
    H447     H        0.19358    0.34622    0.25768    1.000
    H448     H        0.14954    0.30049    0.24495    1.000
    H449     H        0.36771    0.25916    0.21694    1.000
    H450     H        0.28344    0.25031    0.13139    1.000
    H451     H        0.19704    0.26785    0.34534    1.000
    H452     H        0.15569    0.22585    0.30091    1.000
    H453     H        0.24402    0.30769    0.15273    1.000
    H454     H        0.25482    0.35171    0.19512    1.000
    H455     H        0.25128    0.16036    0.30240    1.000
    H456     H        0.25461    0.20111    0.34631    1.000
    O457     O        0.70235    0.66029    0.24663    1.000
    O458     O        0.73820    0.64834    0.21843    1.000
    O459     O        0.74880    0.70250    0.33986    1.000
    O460     O        0.78744    0.74341    0.34514    1.000
    O461     O        0.65883    0.74988    0.29897    1.000
    O462     O        0.65374    0.78966    0.24645    1.000
    O463     O        0.83920    0.80160    0.24549    1.000
    O464     O        0.84593    0.76567    0.28764    1.000
    O465     O        0.79945    0.74731    0.16084    1.000
    O466     O        0.76219    0.72143    0.14480    1.000
    O467     O        0.74486    0.83866    0.19854    1.000
    O468     O        0.70423    0.83740    0.25738    1.000
    O469     O        0.79532    0.84193    0.24697    1.000
    O470     O        0.75763    0.85843    0.27049    1.000
    O471     O        0.75011    0.79498    0.15883    1.000
    O472     O        0.71041    0.73827    0.15830    1.000
    O473     O        0.84099    0.75575    0.20254    1.000
    O474     O        0.84438    0.71305    0.25010    1.000
    O475     O        0.65904    0.70099    0.25145    1.000
    O476     O        0.64482    0.74009    0.22012    1.000
    O477     O        0.70088    0.74789    0.34097    1.000
    O478     O        0.73891    0.78642    0.34815    1.000
    O479     O        0.75258    0.66214    0.29640    1.000
    O480     O        0.79192    0.65997    0.24866    1.000
    Zr481    Zr       0.74691    0.69245    0.25023    1.000
    O482     O        0.78445    0.71591    0.21873    1.000
    Zr483    Zr       0.74561    0.74774    0.30947    1.000
    O484     O        0.77854    0.78333    0.28369    1.000
    Zr485    Zr       0.68855    0.74720    0.25270    1.000
    O486     O        0.71478    0.78000    0.21636    1.000
    Zr487    Zr       0.80952    0.75583    0.24743    1.000
    O488     O        0.78372    0.72006    0.28125    1.000
    Zr489    Zr       0.75333    0.75005    0.19098    1.000
    O490     O        0.71550    0.71814    0.21387    1.000
    Zr491    Zr       0.75040    0.81015    0.24503    1.000
    O492     O        0.71680    0.78524    0.28127    1.000
    O493     O        0.71269    0.71304    0.28608    1.000
    O494     O        0.78552    0.78792    0.21106    1.000
    C495     C        0.66986    0.66924    0.24836    1.000
    C496     C        0.75223    0.67091    0.32897    1.000
    C497     C        0.66880    0.74974    0.33109    1.000
    C498     C        0.82790    0.83328    0.24626    1.000
    C499     C        0.83151    0.75104    0.17062    1.000
    C500     C        0.74636    0.82742    0.16697    1.000
    H501     H        0.79870    0.70053    0.20372    1.000
    H502     H        0.69892    0.79321    0.20095    1.000
    H503     H        0.69830    0.69739    0.30074    1.000
    H504     H        0.79171    0.79929    0.29901    1.000
    H505     H        0.84246    0.74723    0.30529    1.000
    H506     H        0.79898    0.76636    0.34684    1.000
    H507     H        0.69911    0.76031    0.15126    1.000
    H508     H        0.65320    0.74381    0.19604    1.000
    H509     H        0.86843    0.72210    0.24779    1.000
    H510     H        0.78584    0.63532    0.25342    1.000
    H511     H        0.69520    0.84767    0.23554    1.000
    H512     H        0.65178    0.80220    0.26888    1.000
    H513     H        0.74782    0.65452    0.19532    1.000
    H514     H        0.75989    0.69651    0.15122    1.000
    H515     H        0.74376    0.80907    0.33696    1.000
    H516     H        0.75431    0.85390    0.29571    1.000
    O517     O        0.69899    0.33303    0.74893    1.000
    O518     O        0.73455    0.34760    0.77628    1.000
    O519     O        0.75118    0.29525    0.65501    1.000
    O520     O        0.79102    0.25615    0.64969    1.000
    O521     O        0.66166    0.24395    0.69389    1.000
    O522     O        0.65945    0.20028    0.74243    1.000
    O523     O        0.84479    0.20136    0.74746    1.000
    O524     O        0.84980    0.23878    0.70783    1.000
    O525     O        0.79957    0.24848    0.83424    1.000
    O526     O        0.76200    0.27515    0.84925    1.000
    O527     O        0.75649    0.15740    0.79503    1.000
    O528     O        0.71382    0.15320    0.74086    1.000
    O529     O        0.80382    0.15800    0.74894    1.000
    O530     O        0.76723    0.14205    0.71821    1.000
    O531     O        0.75072    0.20097    0.83475    1.000
    O532     O        0.71106    0.25639    0.83574    1.000
    O533     O        0.84253    0.24739    0.79305    1.000
    O534     O        0.84403    0.29021    0.74614    1.000
    O535     O        0.65836    0.28986    0.74280    1.000
    O536     O        0.64649    0.24774    0.77268    1.000
    O537     O        0.70453    0.24548    0.65264    1.000
    O538     O        0.74407    0.21202    0.64441    1.000
    O539     O        0.74710    0.33540    0.69864    1.000
    O540     O        0.78864    0.33865    0.74627    1.000
    Zr541    Zr       0.74533    0.30402    0.74440    1.000
    O542     O        0.78373    0.28270    0.77635    1.000
    Zr543    Zr       0.74887    0.24936    0.68462    1.000
    O544     O        0.78364    0.21581    0.71065    1.000
    Zr545    Zr       0.69087    0.24562    0.74030    1.000
    O546     O        0.71851    0.21404    0.77661    1.000
    Zr547    Zr       0.81205    0.24517    0.74751    1.000
    O548     O        0.78442    0.27945    0.71366    1.000
    Zr549    Zr       0.75438    0.24619    0.80305    1.000
    O550     O        0.71501    0.27590    0.77992    1.000
    Zr551    Zr       0.75696    0.18667    0.74871    1.000
    O552     O        0.72235    0.20975    0.71214    1.000
    O553     O        0.71326    0.28164    0.70768    1.000
    O554     O        0.78984    0.21112    0.78320    1.000
    C555     C        0.66718    0.32214    0.74688    1.000
    C556     C        0.75011    0.32693    0.66612    1.000
    C557     C        0.67227    0.24362    0.66200    1.000
    C558     C        0.83568    0.16896    0.74803    1.000
    C559     C        0.83195    0.24849    0.82496    1.000
    C560     C        0.75338    0.16845    0.82655    1.000
    H561     H        0.79670    0.29862    0.79196    1.000
    H562     H        0.70329    0.19968    0.79161    1.000
    H563     H        0.69794    0.29658    0.69320    1.000
    H564     H        0.79825    0.20102    0.69548    1.000
    H565     H        0.84513    0.25705    0.69030    1.000
    H566     H        0.80381    0.23388    0.64791    1.000
    H567     H        0.69872    0.23424    0.84024    1.000
    H568     H        0.65489    0.24333    0.79662    1.000
    H569     H        0.86863    0.28282    0.74867    1.000
    H570     H        0.78145    0.36276    0.74048    1.000
    H571     H        0.70432    0.14643    0.76382    1.000
    H572     H        0.66163    0.18779    0.71998    1.000
    H573     H        0.74412    0.34170    0.79948    1.000
    H574     H        0.75903    0.29997    0.84279    1.000
    H575     H        0.75584    0.19071    0.65267    1.000
    H576     H        0.76052    0.14812    0.69410    1.000
    O577     O        0.24972    0.69571    0.66454    1.000
    O578     O        0.22146    0.73081    0.65097    1.000
    O579     O        0.34226    0.74936    0.70438    1.000
    O580     O        0.34669    0.78796    0.74387    1.000
    O581     O        0.30586    0.65820    0.75568    1.000
    O582     O        0.25353    0.65233    0.79575    1.000
    O583     O        0.24439    0.83825    0.79980    1.000
    O584     O        0.28620    0.84550    0.76416    1.000
    O585     O        0.16179    0.79262    0.75057    1.000
    O586     O        0.14774    0.75444    0.72356    1.000
    O587     O        0.20262    0.74340    0.84144    1.000
    O588     O        0.26352    0.70557    0.84119    1.000
    O589     O        0.24838    0.79633    0.84203    1.000
    O590     O        0.27381    0.76046    0.86003    1.000
    O591     O        0.16249    0.74440    0.79784    1.000
    O592     O        0.16216    0.70392    0.74265    1.000
    O593     O        0.20216    0.83628    0.75243    1.000
    O594     O        0.25073    0.83910    0.71072    1.000
    O595     O        0.25742    0.65411    0.70649    1.000
    O596     O        0.22775    0.64005    0.74695    1.000
    O597     O        0.34594    0.70195    0.75136    1.000
    O598     O        0.35151    0.74114    0.78848    1.000
    O599     O        0.29891    0.74513    0.66393    1.000
    O600     O        0.25018    0.78526    0.66096    1.000
    Zr601    Zr       0.25299    0.74140    0.69486    1.000
    O602     O        0.22010    0.77864    0.71693    1.000
    Zr603    Zr       0.31249    0.74510    0.74976    1.000
    O604     O        0.28570    0.77849    0.78400    1.000
    Zr605    Zr       0.25824    0.68554    0.75183    1.000
    O606     O        0.22118    0.71172    0.78393    1.000
    Zr607    Zr       0.24809    0.80665    0.75535    1.000
    O608     O        0.28267    0.78067    0.72052    1.000
    Zr609    Zr       0.19399    0.74791    0.75267    1.000
    O610     O        0.21810    0.70968    0.72214    1.000
    Zr611    Zr       0.24850    0.74990    0.81228    1.000
    O612     O        0.28577    0.71665    0.78851    1.000
    O613     O        0.29040    0.70961    0.71658    1.000
    O614     O        0.21299    0.78258    0.78881    1.000
    C615     C        0.25280    0.66363    0.67443    1.000
    C616     C        0.33128    0.74875    0.67269    1.000
    C617     C        0.33749    0.66963    0.75489    1.000
    C618     C        0.24586    0.82844    0.83198    1.000
    C619     C        0.17048    0.82521    0.75082    1.000
    C620     C        0.17100    0.74276    0.83033    1.000
    H621     H        0.20435    0.79160    0.70115    1.000
    H622     H        0.20662    0.69577    0.79795    1.000
    H623     H        0.30540    0.69495    0.70149    1.000
    H624     H        0.30051    0.79299    0.79928    1.000
    H625     H        0.30480    0.84149    0.74681    1.000
    H626     H        0.34818    0.80031    0.76641    1.000
    H627     H        0.15776    0.69168    0.76488    1.000
    H628     H        0.20327    0.64758    0.74982    1.000
    H629     H        0.24688    0.86350    0.71820    1.000
    H630     H        0.25633    0.77866    0.63677    1.000
    H631     H        0.24229    0.69599    0.85220    1.000
    H632     H        0.27604    0.65183    0.80827    1.000
    H633     H        0.19807    0.73986    0.65692    1.000
    H634     H        0.15443    0.75188    0.69876    1.000
    H635     H        0.34041    0.74717    0.81089    1.000
    H636     H        0.29914    0.75828    0.85546    1.000
    O637     O        0.30145    0.24319    0.65897    1.000
    O638     O        0.26610    0.21458    0.64594    1.000
    O639     O        0.24669    0.33652    0.69584    1.000
    O640     O        0.20858    0.34201    0.73608    1.000
    O641     O        0.33893    0.30164    0.74781    1.000
    O642     O        0.34391    0.25250    0.79051    1.000
    O643     O        0.15907    0.24516    0.79448    1.000
    O644     O        0.15322    0.28432    0.75448    1.000
    O645     O        0.20491    0.15764    0.74666    1.000
    O646     O        0.24251    0.14254    0.72121    1.000
    O647     O        0.25001    0.20030    0.83695    1.000
    O648     O        0.29080    0.25562    0.83901    1.000
    O649     O        0.20116    0.24474    0.83673    1.000
    O650     O        0.23717    0.27704    0.85082    1.000
    O651     O        0.25514    0.15957    0.79419    1.000
    O652     O        0.29365    0.15857    0.73761    1.000
    O653     O        0.16126    0.19768    0.75250    1.000
    O654     O        0.15593    0.24043    0.70691    1.000
    O655     O        0.34283    0.25171    0.70101    1.000
    O656     O        0.35692    0.22370    0.74273    1.000
    O657     O        0.29523    0.34165    0.74242    1.000
    O658     O        0.25700    0.34936    0.77851    1.000
    O659     O        0.25148    0.29221    0.65654    1.000
    O660     O        0.21141    0.24345    0.65562    1.000
    Zr661    Zr       0.25562    0.24732    0.68895    1.000
    O662     O        0.21851    0.21508    0.71207    1.000
    Zr663    Zr       0.25180    0.30828    0.74218    1.000
    O664     O        0.21872    0.28229    0.77745    1.000
    Zr665    Zr       0.31134    0.25427    0.74594    1.000
    O666     O        0.28549    0.21802    0.77895    1.000
    Zr667    Zr       0.19051    0.24396    0.74987    1.000
    O668     O        0.21630    0.27746    0.71381    1.000
    Zr669    Zr       0.24950    0.18995    0.74832    1.000
    O670     O        0.28751    0.21333    0.71716    1.000
    Zr671    Zr       0.24719    0.24572    0.80671    1.000
    O672     O        0.28012    0.28261    0.78182    1.000
    O673     O        0.28727    0.28538    0.70962    1.000
    O674     O        0.21466    0.20976    0.78409    1.000
    C675     C        0.33347    0.24629    0.66907    1.000
    C676     C        0.24723    0.32473    0.66444    1.000
    C677     C        0.32758    0.33320    0.74597    1.000
    C678     C        0.16900    0.24516    0.82662    1.000
    C679     C        0.17243    0.16605    0.74989    1.000
    C680     C        0.25352    0.16864    0.82654    1.000
    H681     H        0.20553    0.19871    0.69694    1.000
    H682     H        0.30147    0.20370    0.79318    1.000
    H683     H        0.30178    0.29990    0.69393    1.000
    H684     H        0.20417    0.29746    0.79231    1.000
    H685     H        0.15608    0.29944    0.73382    1.000
    H686     H        0.19650    0.34403    0.75872    1.000
    H687     H        0.30646    0.15459    0.75960    1.000
    H688     H        0.34956    0.19943    0.74727    1.000
    H689     H        0.13181    0.23929    0.71603    1.000
    H690     H        0.21782    0.24857    0.63113    1.000
    H691     H        0.30154    0.23315    0.84554    1.000
    H692     H        0.34179    0.27488    0.80311    1.000
    H693     H        0.25739    0.19128    0.65275    1.000
    H694     H        0.24490    0.14814    0.69610    1.000
    H695     H        0.24562    0.34155    0.80021    1.000
    H696     H        0.24299    0.30118    0.84398    1.000
    O697     O        0.70445    0.74843    0.65942    1.000
    O698     O        0.73990    0.77870    0.64743    1.000
    O699     O        0.75642    0.65696    0.69954    1.000
    O700     O        0.79437    0.65205    0.74027    1.000
    O701     O        0.66404    0.69412    0.74641    1.000
    O702     O        0.65896    0.74250    0.79058    1.000
    O703     O        0.84385    0.75230    0.79820    1.000
    O704     O        0.85076    0.71086    0.76065    1.000
    O705     O        0.79966    0.83680    0.74642    1.000
    O706     O        0.76217    0.85203    0.72149    1.000
    O707     O        0.75287    0.79639    0.83787    1.000
    O708     O        0.71036    0.74081    0.83885    1.000
    O709     O        0.80086    0.74865    0.83932    1.000
    O710     O        0.76328    0.72154    0.85483    1.000
    O711     O        0.74895    0.83634    0.79428    1.000
    O712     O        0.71054    0.83569    0.73695    1.000
    O713     O        0.84294    0.79660    0.75353    1.000
    O714     O        0.84799    0.75103    0.70995    1.000
    O715     O        0.66206    0.74575    0.70121    1.000
    O716     O        0.64709    0.77208    0.74337    1.000
    O717     O        0.70766    0.65365    0.74732    1.000
    O718     O        0.74631    0.64615    0.78263    1.000
    O719     O        0.75385    0.70068    0.65937    1.000
    O720     O        0.79417    0.74855    0.65809    1.000
    Zr721    Zr       0.74942    0.74614    0.69080    1.000
    O722     O        0.78624    0.77870    0.71392    1.000
    Zr723    Zr       0.75151    0.68639    0.74539    1.000
    O724     O        0.78421    0.71287    0.78064    1.000
    Zr725    Zr       0.69244    0.74116    0.74669    1.000
    O726     O        0.71798    0.77780    0.77956    1.000
    Zr727    Zr       0.81328    0.75055    0.75294    1.000
    O728     O        0.78796    0.71628    0.71722    1.000
    Zr729    Zr       0.75478    0.80492    0.74903    1.000
    O730     O        0.71729    0.78116    0.71750    1.000
    Zr731    Zr       0.75542    0.75024    0.80855    1.000
    O732     O        0.72262    0.71323    0.78380    1.000
    O733     O        0.71689    0.70893    0.71165    1.000
    O734     O        0.78870    0.78566    0.78594    1.000
    C735     C        0.67220    0.74825    0.66921    1.000
    C736     C        0.75685    0.66819    0.66787    1.000
    C737     C        0.67519    0.66241    0.74757    1.000
    C738     C        0.83321    0.75033    0.83007    1.000
    C739     C        0.83209    0.82818    0.74961    1.000
    C740     C        0.74994    0.82792    0.82686    1.000
    H741     H        0.79960    0.79445    0.69847    1.000
    H742     H        0.70188    0.79246    0.79332    1.000
    H743     H        0.70250    0.69436    0.69590    1.000
    H744     H        0.79826    0.69781    0.79609    1.000
    H745     H        0.84781    0.69414    0.74128    1.000
    H746     H        0.80653    0.65079    0.76292    1.000
    H747     H        0.69836    0.84157    0.75887    1.000
    H748     H        0.65457    0.79627    0.74813    1.000
    H749     H        0.87206    0.75313    0.71902    1.000
    H750     H        0.78783    0.74397    0.63348    1.000
    H751     H        0.70129    0.76343    0.84720    1.000
    H752     H        0.66008    0.71963    0.80242    1.000
    H753     H        0.74871    0.80194    0.65423    1.000
    H754     H        0.75989    0.84620    0.69641    1.000
    H755     H        0.75402    0.65589    0.80515    1.000
    H756     H        0.75886    0.69686    0.84883    1.000
    O757     O        0.25031    0.66418    0.30113    1.000
    O758     O        0.22108    0.65133    0.26530    1.000
    O759     O        0.34102    0.70869    0.25269    1.000
    O760     O        0.35254    0.74809    0.22320    1.000
    O761     O        0.29700    0.75396    0.34453    1.000
    O762     O        0.24661    0.79589    0.34586    1.000
    O763     O        0.24763    0.80148    0.16015    1.000
    O764     O        0.28764    0.76583    0.15388    1.000
    O765     O        0.16149    0.74954    0.20158    1.000
    O766     O        0.14660    0.72151    0.23830    1.000
    O767     O        0.19747    0.84132    0.25178    1.000
    O768     O        0.23415    0.85740    0.27990    1.000
    O769     O        0.24392    0.84301    0.20272    1.000
    O770     O        0.28728    0.84592    0.25772    1.000
    O771     O        0.15884    0.79630    0.25031    1.000
    O772     O        0.15790    0.74015    0.28970    1.000
    O773     O        0.20359    0.75382    0.15976    1.000
    O774     O        0.25287    0.71215    0.15902    1.000
    O775     O        0.24916    0.70568    0.34390    1.000
    O776     O        0.21794    0.74619    0.35646    1.000
    O777     O        0.33934    0.75625    0.30285    1.000
    O778     O        0.34258    0.79740    0.25485    1.000
    O779     O        0.29902    0.66664    0.25295    1.000
    O780     O        0.25255    0.66226    0.21195    1.000
    Zr781    Zr       0.25220    0.69583    0.25613    1.000
    O782     O        0.22026    0.71719    0.21767    1.000
    Zr783    Zr       0.30941    0.75321    0.25695    1.000
    O784     O        0.28326    0.78612    0.22143    1.000
    Zr785    Zr       0.25190    0.75142    0.31355    1.000
    O786     O        0.21620    0.78297    0.28570    1.000
    Zr787    Zr       0.24824    0.75672    0.19135    1.000
    O788     O        0.28297    0.72347    0.21901    1.000
    Zr789    Zr       0.19165    0.75175    0.24757    1.000
    O790     O        0.21444    0.72095    0.28640    1.000
    Zr791    Zr       0.24396    0.81291    0.24906    1.000
    O792     O        0.27914    0.78982    0.28517    1.000
    O793     O        0.28696    0.71833    0.29044    1.000
    O794     O        0.21131    0.78890    0.21389    1.000
    C795     C        0.24916    0.67363    0.33352    1.000
    C796     C        0.33113    0.67660    0.25140    1.000
    C797     C        0.32909    0.75637    0.33485    1.000
    C798     C        0.24586    0.83346    0.17043    1.000
    C799     C        0.17155    0.75100    0.16946    1.000
    C800     C        0.16623    0.82912    0.25184    1.000
    H801     H        0.20556    0.70111    0.20387    1.000
    H802     H        0.20035    0.79653    0.30081    1.000
    H803     H        0.30184    0.70324    0.30522    1.000
    H804     H        0.29856    0.80136    0.20740    1.000
    H805     H        0.30615    0.74851    0.15841    1.000
    H806     H        0.34582    0.75928    0.20102    1.000
    H807     H        0.15163    0.76213    0.30156    1.000
    H808     H        0.19425    0.75068    0.34741    1.000
    H809     H        0.24931    0.71947    0.13454    1.000
    H810     H        0.25775    0.63793    0.21885    1.000
    H811     H        0.23891    0.85042    0.30425    1.000
    H812     H        0.26805    0.81006    0.34383    1.000
    H813     H        0.19803    0.65682    0.25518    1.000
    H814     H        0.15380    0.69685    0.24083    1.000
    H815     H        0.33903    0.81158    0.27608    1.000
    H816     H        0.29513    0.85525    0.23504    1.000
    O817     O        0.69810    0.24515    0.33329    1.000
    O818     O        0.73485    0.21932    0.34669    1.000
    O819     O        0.74201    0.34093    0.29321    1.000
    O820     O        0.78251    0.34753    0.25391    1.000
    O821     O        0.65520    0.29755    0.24502    1.000
    O822     O        0.65355    0.24766    0.20221    1.000
    O823     O        0.83899    0.25218    0.19655    1.000
    O824     O        0.84280    0.29293    0.23417    1.000
    O825     O        0.80013    0.16378    0.24819    1.000
    O826     O        0.76294    0.14681    0.27397    1.000
    O827     O        0.74749    0.20023    0.15616    1.000
    O828     O        0.70586    0.25681    0.15479    1.000
    O829     O        0.79675    0.24715    0.15474    1.000
    O830     O        0.75949    0.27443    0.13833    1.000
    O831     O        0.75246    0.16055    0.19988    1.000
    O832     O        0.71128    0.15831    0.25529    1.000
    O833     O        0.84065    0.20666    0.24052    1.000
    O834     O        0.84222    0.25235    0.28463    1.000
    O835     O        0.65589    0.24857    0.29133    1.000
    O836     O        0.64407    0.21779    0.25028    1.000
    O837     O        0.69619    0.34062    0.24401    1.000
    O838     O        0.73613    0.35018    0.20956    1.000
    O839     O        0.74609    0.29737    0.33345    1.000
    O840     O        0.78778    0.25118    0.33596    1.000
    Zr841    Zr       0.74336    0.25127    0.30265    1.000
    O842     O        0.78254    0.22105    0.28022    1.000
    Zr843    Zr       0.74194    0.31074    0.24758    1.000
    O844     O        0.77672    0.28612    0.21290    1.000
    Zr845    Zr       0.68665    0.25232    0.24615    1.000
    O846     O        0.71494    0.21697    0.21397    1.000
    Zr847    Zr       0.80795    0.25080    0.24131    1.000
    O848     O        0.78000    0.28359    0.27642    1.000
    Zr849    Zr       0.75331    0.19260    0.24499    1.000
    O850     O        0.71385    0.21413    0.27581    1.000
    Zr851    Zr       0.75075    0.24665    0.18503    1.000
    O852     O        0.71532    0.28176    0.20908    1.000
    O853     O        0.70867    0.28619    0.28121    1.000
    O854     O        0.78614    0.21387    0.20834    1.000
    C855     C        0.66587    0.24534    0.32332    1.000
    C856     C        0.74479    0.32997    0.32487    1.000
    C857     C        0.66433    0.32991    0.24343    1.000
    C858     C        0.82892    0.24996    0.16455    1.000
    C859     C        0.83191    0.17440    0.24453    1.000
    C860     C        0.74964    0.16870    0.16735    1.000
    H861     H        0.79680    0.20623    0.29579    1.000
    H862     H        0.69991    0.20119    0.20025    1.000
    H863     H        0.69316    0.30004    0.29655    1.000
    H864     H        0.78994    0.30190    0.19743    1.000
    H865     H        0.83890    0.30912    0.25382    1.000
    H866     H        0.79550    0.34906    0.23173    1.000
    H867     H        0.70074    0.15122    0.23289    1.000
    H868     H        0.65351    0.19423    0.24589    1.000
    H869     H        0.86644    0.25171    0.27576    1.000
    H870     H        0.78112    0.25596    0.36045    1.000
    H871     H        0.69622    0.23421    0.14705    1.000
    H872     H        0.65283    0.27036    0.19003    1.000
    H873     H        0.74552    0.19658    0.34087    1.000
    H874     H        0.75975    0.15322    0.29879    1.000
    H875     H        0.74043    0.33915    0.18672    1.000
    H876     H        0.75554    0.29931    0.14385    1.000
    C877     C        0.28459    0.09659    0.11308    1.000
    C878     C        0.25872    0.09428    0.08730    1.000
    C879     C        0.23244    0.11972    0.08633    1.000
    C880     C        0.23173    0.14660    0.11092    1.000
    C881     C        0.25667    0.14788    0.13755    1.000
    C882     C        0.28311    0.12270    0.13846    1.000
    H883     H        0.30539    0.07759    0.11405    1.000
    H884     H        0.21228    0.11855    0.06666    1.000
    H885     H        0.21098    0.16563    0.10996    1.000
    H886     H        0.30261    0.12329    0.15881    1.000
    C887     C        0.73464    0.61446    0.58834    1.000
    C888     C        0.76137    0.58945    0.58826    1.000
    C889     C        0.78756    0.59164    0.61377    1.000
    C890     C        0.78609    0.61724    0.63973    1.000
    C891     C        0.75931    0.64209    0.63974    1.000
    C892     C        0.73394    0.64086    0.61350    1.000
    H893     H        0.71421    0.61341    0.56895    1.000
    H894     H        0.80871    0.57302    0.61399    1.000
    H895     H        0.80597    0.61780    0.65971    1.000
    H896     H        0.71294    0.65965    0.61318    1.000
    C897     C        0.76902    0.88125    0.08754    1.000
    C898     C        0.74209    0.90605    0.08724    1.000
    C899     C        0.71564    0.90358    0.11244    1.000
    C900     C        0.71705    0.87797    0.13836    1.000
    C901     C        0.74405    0.85337    0.13868    1.000
    C902     C        0.76969    0.85481    0.11270    1.000
    H903     H        0.78966    0.88253    0.06839    1.000
    H904     H        0.69436    0.92206    0.11249    1.000
    H905     H        0.69695    0.87724    0.15811    1.000
    H906     H        0.79087    0.83620    0.11260    1.000
    C907     C        0.26850    0.37971    0.58565    1.000
    C908     C        0.24141    0.40434    0.58623    1.000
    C909     C        0.21507    0.40103    0.61138    1.000
    C910     C        0.21678    0.37477    0.63657    1.000
    C911     C        0.24403    0.35045    0.63615    1.000
    C912     C        0.26953    0.35268    0.61011    1.000
    H913     H        0.28903    0.38169    0.56644    1.000
    H914     H        0.19370    0.41940    0.61206    1.000
    H915     H        0.19688    0.37347    0.65649    1.000
    H916     H        0.29094    0.33435    0.60958    1.000
    C917     C        0.72683    0.11556    0.90562    1.000
    C918     C        0.75320    0.09017    0.90680    1.000
    C919     C        0.78025    0.09178    0.88220    1.000
    C920     C        0.77999    0.11709    0.85601    1.000
    C921     C        0.75357    0.14228    0.85474    1.000
    C922     C        0.72733    0.14174    0.88015    1.000
    H923     H        0.70576    0.11495    0.92433    1.000
    H924     H        0.80114    0.07287    0.88283    1.000
    H925     H        0.80061    0.11721    0.83684    1.000
    H926     H        0.70669    0.16094    0.87965    1.000
    C927     C        0.27662    0.59503    0.38580    1.000
    C928     C        0.25012    0.59289    0.41095    1.000
    C929     C        0.22369    0.61821    0.41095    1.000
    C930     C        0.22364    0.64496    0.38614    1.000
    C931     C        0.24935    0.64610    0.36024    1.000
    C932     C        0.27581    0.62095    0.36024    1.000
    H933     H        0.29751    0.57611    0.38555    1.000
    H934     H        0.20305    0.61714    0.43012    1.000
    H935     H        0.20311    0.66427    0.38664    1.000
    H936     H        0.29611    0.62169    0.34073    1.000
    C937     C        0.26955    0.88332    0.91006    1.000
    C938     C        0.24327    0.90875    0.90964    1.000
    C939     C        0.21711    0.90678    0.88411    1.000
    C940     C        0.21817    0.88085    0.85854    1.000
    C941     C        0.24454    0.85559    0.85900    1.000
    C942     C        0.26985    0.85662    0.88529    1.000
    H943     H        0.28992    0.88428    0.92952    1.000
    H944     H        0.19633    0.92582    0.88357    1.000
    H945     H        0.19822    0.88024    0.83863    1.000
    H946     H        0.29039    0.83733    0.88604    1.000
    C947     C        0.77235    0.38225    0.40395    1.000
    C948     C        0.74632    0.40798    0.40544    1.000
    C949     C        0.71920    0.40695    0.38086    1.000
    C950     C        0.71902    0.38181    0.35445    1.000
    C951     C        0.74509    0.35625    0.35297    1.000
    C952     C        0.77141    0.35628    0.37830    1.000
    H953     H        0.79346    0.38240    0.42262    1.000
    H954     H        0.69857    0.42613    0.38172    1.000
    H955     H        0.69826    0.38203    0.33536    1.000
    H956     H        0.79174    0.33677    0.37765    1.000
    C957     C        0.11701    0.22754    0.08716    1.000
    C958     C        0.09109    0.25332    0.08636    1.000
    C959     C        0.09062    0.27890    0.11253    1.000
    C960     C        0.11536    0.27836    0.13928    1.000
    C961     C        0.14157    0.25297    0.13948    1.000
    C962     C        0.14242    0.22777    0.11314    1.000
    H963     H        0.11763    0.20733    0.06752    1.000
    H964     H        0.07087    0.29900    0.11239    1.000
    H965     H        0.11443    0.29803    0.15945    1.000
    H966     H        0.16235    0.20786    0.11311    1.000
    C967     C        0.61884    0.72666    0.58991    1.000
    C968     C        0.59328    0.75283    0.59070    1.000
    C969     C        0.59395    0.77756    0.61762    1.000
    C970     C        0.61944    0.77583    0.64355    1.000
    C971     C        0.64532    0.75013    0.64217    1.000
    C972     C        0.64505    0.72574    0.61508    1.000
    H973     H        0.61859    0.70711    0.56961    1.000
    H974     H        0.57454    0.79797    0.61868    1.000
    H975     H        0.61934    0.79484    0.66437    1.000
    H976     H        0.66467    0.70555    0.61387    1.000
    C977     C        0.08992    0.76481    0.88104    1.000
    C978     C        0.09041    0.73968    0.90764    1.000
    C979     C        0.11738    0.71496    0.90814    1.000
    C980     C        0.14382    0.71598    0.88306    1.000
    C981     C        0.14291    0.74084    0.85631    1.000
    C982     C        0.11554    0.76491    0.85524    1.000
    H983     H        0.06964    0.78437    0.88030    1.000
    H984     H        0.11825    0.69530    0.92831    1.000
    H985     H        0.16479    0.69718    0.88429    1.000
    H986     H        0.11459    0.78447    0.83501    1.000
    C987     C        0.61291    0.21502    0.40039    1.000
    C988     C        0.58657    0.24039    0.40144    1.000
    C989     C        0.58654    0.26708    0.37645    1.000
    C990     C        0.61202    0.26809    0.35060    1.000
    C991     C        0.63870    0.24323    0.35007    1.000
    C992     C        0.63920    0.21681    0.37524    1.000
    H993     H        0.61340    0.19424    0.41942    1.000
    H994     H        0.56676    0.28715    0.37704    1.000
    H995     H        0.61143    0.28880    0.33150    1.000
    H996     H        0.65960    0.19736    0.37509    1.000
    C997     C        0.88453    0.72280    0.09246    1.000
    C998     C        0.91213    0.74682    0.09310    1.000
    C999     C        0.91275    0.77232    0.11933    1.000
    C1000    C        0.88683    0.77324    0.14484    1.000
    C1001    C        0.85897    0.74968    0.14380    1.000
    C1002    C        0.85784    0.72462    0.11723    1.000
    H1003    H        0.88350    0.70290    0.07253    1.000
    H1004    H        0.93347    0.79141    0.12013    1.000
    H1005    H        0.88819    0.79277    0.16504    1.000
    H1006    H        0.83669    0.70602    0.11608    1.000
    C1007    C        0.41400    0.26752    0.61694    1.000
    C1008    C        0.41268    0.24235    0.59042    1.000
    C1009    C        0.38523    0.21820    0.59021    1.000
    C1010    C        0.35923    0.21964    0.61566    1.000
    C1011    C        0.36091    0.24449    0.64238    1.000
    C1012    C        0.38868    0.26819    0.64304    1.000
    H1013    H        0.43470    0.28665    0.61738    1.000
    H1014    H        0.38374    0.19857    0.57004    1.000
    H1015    H        0.33803    0.20108    0.61475    1.000
    H1016    H        0.39026    0.28779    0.66325    1.000
    C1017    C        0.88193    0.22475    0.90581    1.000
    C1018    C        0.90832    0.25008    0.90602    1.000
    C1019    C        0.90946    0.27487    0.87915    1.000
    C1020    C        0.88493    0.27400    0.85227    1.000
    C1021    C        0.85824    0.24913    0.85262    1.000
    C1022    C        0.85669    0.22471    0.87967    1.000
    H1023    H        0.88082    0.20514    0.92603    1.000
    H1024    H        0.92959    0.29460    0.87885    1.000
    H1025    H        0.88638    0.29308    0.83157    1.000
    H1026    H        0.83634    0.20519    0.88014    1.000
    C1027    C        0.40753    0.78342    0.38736    1.000
    C1028    C        0.40750    0.75819    0.41383    1.000
    C1029    C        0.38138    0.73260    0.41411    1.000
    C1030    C        0.35535    0.73264    0.38881    1.000
    C1031    C        0.35577    0.75746    0.36209    1.000
    C1032    C        0.38216    0.78266    0.36127    1.000
    H1033    H        0.42743    0.80337    0.38673    1.000
    H1034    H        0.38113    0.71270    0.43407    1.000
    H1035    H        0.33533    0.71280    0.38957    1.000
    H1036    H        0.38280    0.80199    0.34076    1.000
    C1037    C        0.09702    0.10999    0.27333    1.000
    C1038    C        0.09368    0.08751    0.24471    1.000
    C1039    C        0.11674    0.09086    0.21653    1.000
    C1040    C        0.14295    0.11611    0.21717    1.000
    C1041    C        0.14563    0.13902    0.24544    1.000
    C1042    C        0.12242    0.13600    0.27340    1.000
    H1043    H        0.07953    0.10771    0.29532    1.000
    H1044    H        0.11445    0.07386    0.19417    1.000
    H1045    H        0.16054    0.11839    0.19525    1.000
    H1046    H        0.12418    0.15360    0.29536    1.000
    C1047    C        0.62528    0.58199    0.77365    1.000
    C1048    C        0.59809    0.58198    0.74918    1.000
    C1049    C        0.59687    0.60832    0.72387    1.000
    C1050    C        0.62185    0.63473    0.72360    1.000
    C1051    C        0.64911    0.63450    0.74787    1.000
    C1052    C        0.65100    0.60771    0.77257    1.000
    H1053    H        0.62649    0.56212    0.79360    1.000
    H1054    H        0.57615    0.60874    0.70475    1.000
    H1055    H        0.62015    0.65515    0.70423    1.000
    H1056    H        0.67182    0.60727    0.79158    1.000
    C1057    C        0.89332    0.09473    0.77599    1.000
    C1058    C        0.91490    0.09071    0.74676    1.000
    C1059    C        0.91055    0.11303    0.71812    1.000
    C1060    C        0.88523    0.13918    0.71887    1.000
    C1061    C        0.86331    0.14263    0.74783    1.000
    C1062    C        0.86736    0.12020    0.77629    1.000
    H1063    H        0.89640    0.07787    0.79836    1.000
    H1064    H        0.92690    0.11025    0.69533    1.000
    H1065    H        0.88224    0.15624    0.69663    1.000
    H1066    H        0.85071    0.12270    0.79886    1.000
    C1067    C        0.38816    0.60020    0.27510    1.000
    C1068    C        0.40960    0.59729    0.24561    1.000
    C1069    C        0.40504    0.62086    0.21798    1.000
    C1070    C        0.37986    0.64715    0.22008    1.000
    C1071    C        0.35813    0.64952    0.24931    1.000
    C1072    C        0.36228    0.62576    0.27668    1.000
    H1073    H        0.39132    0.58242    0.29674    1.000
    H1074    H        0.42121    0.61901    0.19496    1.000
    H1075    H        0.37693    0.66528    0.19869    1.000
    H1076    H        0.34584    0.62738    0.29951    1.000
    C1077    C        0.11722    0.90319    0.72349    1.000
    C1078    C        0.09049    0.90303    0.74845    1.000
    C1079    C        0.09007    0.87667    0.77383    1.000
    C1080    C        0.11556    0.85070    0.77390    1.000
    C1081    C        0.14261    0.85140    0.74946    1.000
    C1082    C        0.14345    0.87794    0.72440    1.000
    H1083    H        0.11801    0.92319    0.70364    1.000
    H1084    H        0.06991    0.87621    0.79353    1.000
    H1085    H        0.11473    0.83063    0.79361    1.000
    H1086    H        0.16420    0.87886    0.70533    1.000
    C1087    C        0.58424    0.38180    0.26704    1.000
    C1088    C        0.58470    0.40839    0.24189    1.000
    C1089    C        0.61139    0.40859    0.21687    1.000
    C1090    C        0.63752    0.38319    0.21750    1.000
    C1091    C        0.63664    0.35642    0.24233    1.000
    C1092    C        0.60960    0.35569    0.26683    1.000
    H1093    H        0.56414    0.38128    0.28681    1.000
    H1094    H        0.61223    0.42874    0.19718    1.000
    H1095    H        0.65821    0.38417    0.19838    1.000
    H1096    H        0.60867    0.33543    0.28639    1.000
    C1097    C        0.90537    0.88812    0.22127    1.000
    C1098    C        0.90432    0.91445    0.24658    1.000
    C1099    C        0.87752    0.91419    0.27149    1.000
    C1100    C        0.85207    0.88819    0.27087    1.000
    C1101    C        0.85379    0.86141    0.24614    1.000
    C1102    C        0.88063    0.86148    0.22143    1.000
    H1103    H        0.92574    0.88790    0.20179    1.000
    H1104    H        0.87642    0.93410    0.29142    1.000
    H1105    H        0.83157    0.88845    0.29022    1.000
    H1106    H        0.88215    0.84117    0.20203    1.000
    C1107    C        0.38373    0.40869    0.71852    1.000
    C1108    C        0.40634    0.41163    0.74711    1.000
    C1109    C        0.40206    0.38932    0.77571    1.000
    C1110    C        0.37624    0.36376    0.77533    1.000
    C1111    C        0.35356    0.36106    0.74691    1.000
    C1112    C        0.35711    0.38389    0.71867    1.000
    H1113    H        0.38674    0.42564    0.69620    1.000
    H1114    H        0.41917    0.39133    0.79803    1.000
    H1115    H        0.37383    0.34619    0.79724    1.000
    H1116    H        0.33995    0.38180    0.69640    1.000
    C1117    C        0.11599    0.22133    0.90581    1.000
    C1118    C        0.08955    0.24655    0.90478    1.000
    C1119    C        0.08966    0.27140    0.87793    1.000
    C1120    C        0.11523    0.27050    0.85211    1.000
    C1121    C        0.14186    0.24563    0.85351    1.000
    C1122    C        0.14231    0.22127    0.88069    1.000
    H1123    H        0.11633    0.20189    0.92622    1.000
    H1124    H        0.06971    0.29128    0.87684    1.000
    H1125    H        0.11463    0.28963    0.83141    1.000
    H1126    H        0.16262    0.20183    0.88204    1.000
    C1127    C        0.59004    0.77732    0.38288    1.000
    C1128    C        0.58919    0.75201    0.40930    1.000
    C1129    C        0.61498    0.72608    0.40986    1.000
    C1130    C        0.64139    0.72580    0.38480    1.000
    C1131    C        0.64171    0.75070    0.35810    1.000
    C1132    C        0.61568    0.77624    0.35709    1.000
    H1133    H        0.57065    0.79777    0.38214    1.000
    H1134    H        0.61479    0.70627    0.42991    1.000
    H1135    H        0.66116    0.70576    0.38581    1.000
    H1136    H        0.61561    0.79572    0.33671    1.000
    C1137    C        0.88202    0.72444    0.91112    1.000
    C1138    C        0.90955    0.74851    0.91131    1.000
    C1139    C        0.91178    0.77323    0.88446    1.000
    C1140    C        0.88729    0.77342    0.85756    1.000
    C1141    C        0.85950    0.74976    0.85782    1.000
    C1142    C        0.85683    0.72551    0.88496    1.000
    H1143    H        0.88005    0.70488    0.93133    1.000
    H1144    H        0.93280    0.79202    0.88413    1.000
    H1145    H        0.88969    0.79237    0.83687    1.000
    H1146    H        0.83566    0.70690    0.88546    1.000
    C1147    C        0.37839    0.22685    0.40799    1.000
    C1148    C        0.40584    0.25099    0.40881    1.000
    C1149    C        0.40760    0.27683    0.38298    1.000
    C1150    C        0.38282    0.27795    0.35634    1.000
    C1151    C        0.35524    0.25405    0.35588    1.000
    C1152    C        0.35294    0.22879    0.38212    1.000
    H1153    H        0.37676    0.20646    0.42739    1.000
    H1154    H        0.42854    0.29570    0.38315    1.000
    H1155    H        0.38491    0.29769    0.33636    1.000
    H1156    H        0.33192    0.21000    0.38205    1.000
    C1157    C        0.12007    0.72190    0.09118    1.000
    C1158    C        0.09389    0.74744    0.08961    1.000
    C1159    C        0.09341    0.77399    0.11474    1.000
    C1160    C        0.11839    0.77473    0.14118    1.000
    C1161    C        0.14480    0.74960    0.14224    1.000
    C1162    C        0.14572    0.72337    0.11693    1.000
    H1163    H        0.12071    0.70100    0.07228    1.000
    H1164    H        0.07353    0.79396    0.11397    1.000
    H1165    H        0.11753    0.79526    0.16041    1.000
    H1166    H        0.16594    0.70373    0.11748    1.000
    C1167    C        0.62030    0.21635    0.58334    1.000
    C1168    C        0.59387    0.24168    0.58298    1.000
    C1169    C        0.59363    0.26757    0.60874    1.000
    C1170    C        0.61900    0.26779    0.63474    1.000
    C1171    C        0.64564    0.24286    0.63469    1.000
    C1172    C        0.64642    0.21736    0.60865    1.000
    H1173    H        0.62075    0.19597    0.56387    1.000
    H1174    H        0.57358    0.28738    0.60887    1.000
    H1175    H        0.61819    0.28773    0.65460    1.000
    H1176    H        0.66677    0.19784    0.60839    1.000
    C1177    C        0.88326    0.22381    0.08707    1.000
    C1178    C        0.90937    0.24941    0.08749    1.000
    C1179    C        0.90839    0.27547    0.11313    1.000
    C1180    C        0.88230    0.27542    0.13840    1.000
    C1181    C        0.85601    0.25014    0.13763    1.000
    C1182    C        0.85642    0.22451    0.11165    1.000
    H1183    H        0.88357    0.20349    0.06754    1.000
    H1184    H        0.92804    0.29568    0.11366    1.000
    H1185    H        0.88230    0.29542    0.15827    1.000
    H1186    H        0.83646    0.20461    0.11091    1.000
    C1187    C        0.41043    0.77680    0.62168    1.000
    C1188    C        0.41106    0.75217    0.59465    1.000
    C1189    C        0.38453    0.72702    0.59293    1.000
    C1190    C        0.35774    0.72670    0.61762    1.000
    C1191    C        0.35771    0.75081    0.64503    1.000
    C1192    C        0.38437    0.77569    0.64703    1.000
    H1193    H        0.43034    0.79669    0.62327    1.000
    H1194    H        0.38450    0.70780    0.57232    1.000
    H1195    H        0.33762    0.70703    0.61591    1.000
    H1196    H        0.38480    0.79446    0.66805    1.000
    C1197    C        0.28320    0.09163    0.88040    1.000
    C1198    C        0.25737    0.09058    0.90630    1.000
    C1199    C        0.23040    0.11522    0.90549    1.000
    C1200    C        0.22952    0.14072    0.87963    1.000
    C1201    C        0.25489    0.14138    0.85341    1.000
    C1202    C        0.28158    0.11646    0.85371    1.000
    H1203    H        0.30438    0.07304    0.88073    1.000
    H1204    H        0.21020    0.11485    0.92515    1.000
    H1205    H        0.20871    0.15968    0.87976    1.000
    H1206    H        0.30155    0.11676    0.83381    1.000
    C1207    C        0.73053    0.61532    0.40716    1.000
    C1208    C        0.75744    0.59054    0.40683    1.000
    C1209    C        0.78281    0.59241    0.38049    1.000
    C1210    C        0.78078    0.61806    0.35457    1.000
    C1211    C        0.75420    0.64311    0.35543    1.000
    C1212    C        0.72928    0.64168    0.38208    1.000
    H1213    H        0.71065    0.61441    0.42713    1.000
    H1214    H        0.80399    0.57383    0.37989    1.000
    H1215    H        0.80036    0.61884    0.33430    1.000
    H1216    H        0.70848    0.66066    0.38312    1.000
    C1217    C        0.72317    0.11362    0.09011    1.000
    C1218    C        0.75002    0.08878    0.08883    1.000
    C1219    C        0.77644    0.09009    0.11415    1.000
    C1220    C        0.77565    0.11534    0.14051    1.000
    C1221    C        0.74918    0.14052    0.14121    1.000
    C1222    C        0.72311    0.13961    0.11565    1.000
    H1223    H        0.70253    0.11316    0.07092    1.000
    H1224    H        0.79760    0.07149    0.11351    1.000
    H1225    H        0.79627    0.11588    0.15974    1.000
    H1226    H        0.70253    0.15887    0.11567    1.000
    C1227    C        0.27803    0.58688    0.61780    1.000
    C1228    C        0.25117    0.58674    0.59292    1.000
    C1229    C        0.22464    0.61181    0.59552    1.000
    C1230    C        0.22528    0.63685    0.62199    1.000
    C1231    C        0.25176    0.63655    0.64715    1.000
    C1232    C        0.27796    0.61116    0.64507    1.000
    H1233    H        0.29895    0.56807    0.61616    1.000
    H1234    H        0.20365    0.61223    0.57671    1.000
    H1235    H        0.20487    0.65627    0.62306    1.000
    H1236    H        0.29887    0.61075    0.66397    1.000
    C1237    C        0.77269    0.88332    0.90489    1.000
    C1238    C        0.74527    0.90753    0.90552    1.000
    C1239    C        0.71942    0.90557    0.87965    1.000
    C1240    C        0.72138    0.88032    0.85332    1.000
    C1241    C        0.74845    0.85579    0.85326    1.000
    C1242    C        0.77393    0.85736    0.87939    1.000
    H1243    H        0.79293    0.88432    0.92448    1.000
    H1244    H        0.69786    0.92371    0.87978    1.000
    H1245    H        0.70132    0.87936    0.83354    1.000
    H1246    H        0.79505    0.83868    0.87978    1.000
    C1247    C        0.26956    0.38690    0.40341    1.000
    C1248    C        0.24184    0.41069    0.40504    1.000
    C1249    C        0.21546    0.40892    0.37973    1.000
    C1250    C        0.21710    0.38413    0.35297    1.000
    C1251    C        0.24445    0.35995    0.35198    1.000
    C1252    C        0.27053    0.36141    0.37748    1.000
    H1253    H        0.29019    0.38779    0.42260    1.000
    H1254    H        0.19368    0.42679    0.38067    1.000
    H1255    H        0.19660    0.38319    0.33365    1.000
    H1256    H        0.29185    0.34296    0.37712    1.000
    C1257    C        0.27164    0.88660    0.09189    1.000
    C1258    C        0.24531    0.91199    0.09089    1.000
    C1259    C        0.21914    0.91138    0.11644    1.000
    C1260    C        0.21978    0.88635    0.14296    1.000
    C1261    C        0.24581    0.86072    0.14348    1.000
    C1262    C        0.27153    0.86084    0.11759    1.000
    H1263    H        0.29204    0.88655    0.07244    1.000
    H1264    H        0.19837    0.93043    0.11594    1.000
    H1265    H        0.19952    0.88645    0.16256    1.000
    H1266    H        0.29182    0.84127    0.11759    1.000
    C1267    C        0.77709    0.38131    0.58851    1.000
    C1268    C        0.75086    0.40682    0.58756    1.000
    C1269    C        0.72461    0.40604    0.61306    1.000
    C1270    C        0.72503    0.38075    0.63938    1.000
    C1271    C        0.75094    0.35498    0.63984    1.000
    C1272    C        0.77676    0.35528    0.61402    1.000
    H1273    H        0.79760    0.38136    0.56917    1.000
    H1274    H        0.70391    0.42516    0.61267    1.000
    H1275    H        0.70460    0.38070    0.65880    1.000
    H1276    H        0.79689    0.33554    0.61384    1.000
    C1277    C        0.12114    0.08574    0.72621    1.000
    C1278    C        0.09645    0.08450    0.75317    1.000
    C1279    C        0.09765    0.10975    0.77959    1.000
    C1280    C        0.12215    0.13663    0.77823    1.000
    C1281    C        0.14668    0.13782    0.75122    1.000
    C1282    C        0.14645    0.11187    0.72558    1.000
    H1283    H        0.12062    0.06656    0.70556    1.000
    H1284    H        0.07904    0.10908    0.80075    1.000
    H1285    H        0.12223    0.15629    0.79845    1.000
    H1286    H        0.16526    0.11241    0.70458    1.000
    C1287    C        0.59337    0.61416    0.27558    1.000
    C1288    C        0.59160    0.58982    0.24839    1.000
    C1289    C        0.61640    0.59129    0.22150    1.000
    C1290    C        0.64253    0.61664    0.22185    1.000
    C1291    C        0.64346    0.64159    0.24844    1.000
    C1292    C        0.61869    0.64026    0.27524    1.000
    H1293    H        0.57474    0.61326    0.29671    1.000
    H1294    H        0.61547    0.57276    0.20028    1.000
    H1295    H        0.66146    0.61735    0.20098    1.000
    H1296    H        0.61926    0.65920    0.29613    1.000
    C1297    C        0.11053    0.90494    0.28064    1.000
    C1298    C        0.08508    0.90588    0.25440    1.000
    C1299    C        0.08558    0.88018    0.22833    1.000
    C1300    C        0.11119    0.85428    0.22834    1.000
    C1301    C        0.13743    0.85435    0.25368    1.000
    C1302    C        0.13693    0.87984    0.27985    1.000
    H1303    H        0.11048    0.92426    0.30116    1.000
    H1304    H        0.06626    0.88040    0.20780    1.000
    H1305    H        0.11125    0.83495    0.20789    1.000
    H1306    H        0.15694    0.88023    0.29969    1.000
    C1307    C        0.61231    0.39864    0.77497    1.000
    C1308    C        0.58796    0.40057    0.74775    1.000
    C1309    C        0.58976    0.37623    0.72051    1.000
    C1310    C        0.61485    0.34993    0.72096    1.000
    C1311    C        0.63942    0.34840    0.74788    1.000
    C1312    C        0.63823    0.37308    0.77472    1.000
    H1313    H        0.61150    0.41726    0.79611    1.000
    H1314    H        0.57164    0.37761    0.69895    1.000
    H1315    H        0.61578    0.33140    0.69978    1.000
    H1316    H        0.65717    0.37237    0.79560    1.000
    C1317    C        0.90952    0.12082    0.21644    1.000
    C1318    C        0.91172    0.09607    0.24334    1.000
    C1319    C        0.88739    0.09743    0.27062    1.000
    C1320    C        0.86123    0.12277    0.27086    1.000
    C1321    C        0.85966    0.14793    0.24445    1.000
    C1322    C        0.88415    0.14697    0.21738    1.000
    H1323    H        0.92759    0.11996    0.19483    1.000
    H1324    H        0.88848    0.07859    0.29156    1.000
    H1325    H        0.84247    0.12305    0.29190    1.000
    H1326    H        0.88305    0.16590    0.19652    1.000
    C1327    C        0.39241    0.59392    0.78470    1.000
    C1328    C        0.41777    0.59254    0.75840    1.000
    C1329    C        0.41732    0.61766    0.73182    1.000
    C1330    C        0.39179    0.64353    0.73138    1.000
    C1331    C        0.36567    0.64393    0.75684    1.000
    C1332    C        0.36610    0.61902    0.78351    1.000
    H1333    H        0.39246    0.57491    0.80551    1.000
    H1334    H        0.43657    0.61695    0.71124    1.000
    H1335    H        0.39170    0.66251    0.71053    1.000
    H1336    H        0.34617    0.61913    0.80345    1.000
    C1337    C        0.88419    0.90598    0.71985    1.000
    C1338    C        0.90916    0.90878    0.74645    1.000
    C1339    C        0.90850    0.88482    0.77405    1.000
    C1340    C        0.88358    0.85833    0.77485    1.000
    C1341    C        0.85828    0.85604    0.74867    1.000
    C1342    C        0.85850    0.88022    0.72133    1.000
    H1343    H        0.88452    0.92388    0.69809    1.000
    H1344    H        0.92753    0.88647    0.79478    1.000
    H1345    H        0.88369    0.83995    0.79618    1.000
    H1346    H        0.83931    0.87864    0.70075    1.000
    C1347    C        0.40374    0.39092    0.27104    1.000
    C1348    C        0.40352    0.41510    0.24361    1.000
    C1349    C        0.37793    0.41229    0.21762    1.000
    C1350    C        0.35254    0.38629    0.21953    1.000
    C1351    C        0.35322    0.36186    0.24664    1.000
    C1352    C        0.37912    0.36417    0.27223    1.000
    H1353    H        0.42330    0.39256    0.29128    1.000
    H1354    H        0.37761    0.43032    0.19596    1.000
    H1355    H        0.33288    0.38469    0.19939    1.000
    H1356    H        0.37995    0.34557    0.29337    1.000
