# CIF file generated by openbabel 3.1.0, see https://openbabel.org
data_I
_chemical_name_common 'image0'
_cell_length_a 15.3162
_cell_length_b 12.6184
_cell_length_c 15.5659
_cell_angle_alpha 90
_cell_angle_beta 96.165
_cell_angle_gamma 90
_space_group_name_H-M_alt 'P 1'
_space_group_name_Hall 'P 1'
loop_
    _symmetry_equiv_pos_as_xyz
    x,y,z
loop_
    _atom_site_label
    _atom_site_type_symbol
    _atom_site_fract_x
    _atom_site_fract_y
    _atom_site_fract_z
    _atom_site_occupancy
    Cd1      Cd       0.68200    0.82646    0.68393    1.000
    Cd2      Cd       0.39064    0.83011    0.73082    1.000
    C1       C        0.96230    0.76030    0.74540    1.000
    C2       C        0.05580    0.77780    0.73620    1.000
    C3       C        0.08670    0.87300    0.71110    1.000
    H1       H        0.04820    0.92870    0.69660    1.000
    C4       C        0.17550    0.88610    0.70720    1.000
    H2       H        0.19510    0.95200    0.69070    1.000
    C5       C        0.20340    0.71770    0.74520    1.000
    H3       H        0.24300    0.66190    0.75480    1.000
    C6       C        0.11640    0.69770    0.75250    1.000
    H4       H        0.09860    0.63070    0.76830    1.000
    C7       C        0.63090    0.50620    0.59690    1.000
    C8       C        0.62810    0.43150    0.52400    1.000
    C9       C        0.58900    0.46250    0.44340    1.000
    H5       H        0.56430    0.52960    0.43570    1.000
    C10      C        0.58710    0.39330    0.37520    1.000
    H6       H        0.56050    0.41520    0.32170    1.000
    C11      C        0.66120    0.26670    0.45970    1.000
    H7       H        0.68650    0.19970    0.46530    1.000
    C12      C        0.66590    0.33160    0.53120    1.000
    H8       H        0.69420    0.30870    0.58380    1.000
    C13      C        0.48660    0.94780    0.61450    1.000
    C14      C        0.51930    0.01990    0.54545    1.000
    H9       H        0.58350    0.01630    0.54970    1.000
    C15      C        0.49150    0.13510    0.55950    1.000
    H10      H        0.50130    0.17580    0.50860    1.000
    H11      H        0.42890    0.13610    0.56450    1.000
    C16      C        0.53830    0.18980    0.63790    1.000
    N1       N        0.82490    0.77650    0.73390    1.000
    N2       N        0.84530    0.69410    0.78330    1.000
    N3       N        0.93210    0.68190    0.79110    1.000
    N4       N        0.89760    0.82100    0.70930    1.000
    N5       N        0.23450    0.81100    0.72540    1.000
    N6       N        0.63870    0.65090    0.66530    1.000
    N7       N        0.63470    0.57540    0.72243    1.000
    N8       N        0.62990    0.48200    0.68084    1.000
    N9       N        0.63580    0.60990    0.58529    1.000
    N10      N        0.62170    0.29600    0.38211    1.000
    O1       O        0.53746    0.88660    0.65864    1.000
    O2       O        0.40567    0.95065    0.62298    1.000
    O3       O        0.60672    0.15310    0.67688    1.000
    O4       O        0.50779    0.27770    0.66004    1.000
    Cd3      Cd       0.31800    0.32646    0.81607    1.000
    Cd4      Cd       0.60936    0.33011    0.76918    1.000
    C17      C        0.03770    0.26030    0.75460    1.000
    C18      C        0.94420    0.27780    0.76380    1.000
    C19      C        0.91330    0.37300    0.78890    1.000
    H12      H        0.95180    0.42870    0.80340    1.000
    C20      C        0.82450    0.38610    0.79280    1.000
    H13      H        0.80490    0.45200    0.80930    1.000
    C21      C        0.79660    0.21770    0.75480    1.000
    H14      H        0.75700    0.16190    0.74520    1.000
    C22      C        0.88360    0.19770    0.74750    1.000
    H15      H        0.90140    0.13070    0.73170    1.000
    C23      C        0.36910    0.00620    0.90310    1.000
    C24      C        0.37190    0.93150    0.97600    1.000
    C25      C        0.41100    0.96250    0.05660    1.000
    H16      H        0.43570    0.02960    0.06430    1.000
    C26      C        0.41290    0.89330    0.12480    1.000
    H17      H        0.43950    0.91520    0.17830    1.000
    C27      C        0.33880    0.76670    0.04030    1.000
    H18      H        0.31350    0.69970    0.03470    1.000
    C28      C        0.33410    0.83160    0.96880    1.000
    H19      H        0.30580    0.80870    0.91620    1.000
    C29      C        0.51340    0.44780    0.88550    1.000
    C30      C        0.48070    0.51990    0.95455    1.000
    H20      H        0.41650    0.51630    0.95030    1.000
    C31      C        0.50850    0.63510    0.94050    1.000
    H21      H        0.49870    0.67580    0.99140    1.000
    H22      H        0.57110    0.63610    0.93550    1.000
    C32      C        0.46170    0.68980    0.86210    1.000
    N11      N        0.17510    0.27650    0.76610    1.000
    N12      N        0.15470    0.19410    0.71670    1.000
    N13      N        0.06790    0.18190    0.70890    1.000
    N14      N        0.10240    0.32100    0.79070    1.000
    N15      N        0.76550    0.31100    0.77460    1.000
    N16      N        0.36130    0.15090    0.83470    1.000
    N17      N        0.36530    0.07540    0.77757    1.000
    N18      N        0.37010    0.98200    0.81916    1.000
    N19      N        0.36420    0.10990    0.91471    1.000
    N20      N        0.37830    0.79600    0.11789    1.000
    O5       O        0.46254    0.38660    0.84136    1.000
    O6       O        0.59433    0.45065    0.87702    1.000
    O7       O        0.39328    0.65310    0.82312    1.000
    O8       O        0.49221    0.77770    0.83996    1.000
    Cd5      Cd       0.31800    0.17354    0.31607    1.000
    Cd6      Cd       0.60936    0.16989    0.26918    1.000
    C33      C        0.03770    0.23970    0.25460    1.000
    C34      C        0.94420    0.22220    0.26380    1.000
    C35      C        0.91330    0.12700    0.28890    1.000
    H23      H        0.95180    0.07130    0.30340    1.000
    C36      C        0.82450    0.11390    0.29280    1.000
    H24      H        0.80490    0.04800    0.30930    1.000
    C37      C        0.79660    0.28230    0.25480    1.000
    H25      H        0.75700    0.33810    0.24520    1.000
    C38      C        0.88360    0.30230    0.24750    1.000
    H26      H        0.90140    0.36930    0.23170    1.000
    C39      C        0.36910    0.49380    0.40310    1.000
    C40      C        0.37190    0.56850    0.47600    1.000
    C41      C        0.41100    0.53750    0.55660    1.000
    H27      H        0.43570    0.47040    0.56430    1.000
    C42      C        0.41290    0.60670    0.62480    1.000
    H28      H        0.43950    0.58480    0.67830    1.000
    C43      C        0.33880    0.73330    0.54030    1.000
    H29      H        0.31350    0.80030    0.53470    1.000
    C44      C        0.33410    0.66840    0.46880    1.000
    H30      H        0.30580    0.69130    0.41620    1.000
    C45      C        0.51340    0.05220    0.38550    1.000
    C46      C        0.48070    0.98010    0.45455    1.000
    H31      H        0.41650    0.98370    0.45030    1.000
    C47      C        0.50850    0.86490    0.44050    1.000
    H32      H        0.49870    0.82420    0.49140    1.000
    H33      H        0.57110    0.86390    0.43550    1.000
    C48      C        0.46170    0.81020    0.36210    1.000
    N21      N        0.17510    0.22350    0.26610    1.000
    N22      N        0.15470    0.30590    0.21670    1.000
    N23      N        0.06790    0.31810    0.20890    1.000
    N24      N        0.10240    0.17900    0.29070    1.000
    N25      N        0.76550    0.18900    0.27460    1.000
    N26      N        0.36130    0.34910    0.33470    1.000
    N27      N        0.36530    0.42460    0.27757    1.000
    N28      N        0.37010    0.51800    0.31916    1.000
    N29      N        0.36420    0.39010    0.41471    1.000
    N30      N        0.37830    0.70400    0.61789    1.000
    O9       O        0.46254    0.11340    0.34136    1.000
    O10      O        0.59433    0.04935    0.37702    1.000
    O11      O        0.39328    0.84690    0.32312    1.000
    O12      O        0.49221    0.72230    0.33996    1.000
    Cd7      Cd       0.68200    0.67354    0.18393    1.000
    Cd8      Cd       0.39064    0.66989    0.23082    1.000
    C49      C        0.96230    0.73970    0.24540    1.000
    C50      C        0.05580    0.72220    0.23620    1.000
    C51      C        0.08670    0.62700    0.21110    1.000
    H34      H        0.04820    0.57130    0.19660    1.000
    C52      C        0.17550    0.61390    0.20720    1.000
    H35      H        0.19510    0.54800    0.19070    1.000
    C53      C        0.20340    0.78230    0.24520    1.000
    H36      H        0.24300    0.83810    0.25480    1.000
    C54      C        0.11640    0.80230    0.25250    1.000
    H37      H        0.09860    0.86930    0.26830    1.000
    C55      C        0.63090    0.99380    0.09690    1.000
    C56      C        0.62810    0.06850    0.02400    1.000
    C57      C        0.58900    0.03750    0.94340    1.000
    H38      H        0.56430    0.97040    0.93570    1.000
    C58      C        0.58710    0.10670    0.87520    1.000
    H39      H        0.56050    0.08480    0.82170    1.000
    C59      C        0.66120    0.23330    0.95970    1.000
    H40      H        0.68650    0.30030    0.96530    1.000
    C60      C        0.66590    0.16840    0.03120    1.000
    H41      H        0.69420    0.19130    0.08380    1.000
    C61      C        0.48660    0.55220    0.11450    1.000
    C62      C        0.51930    0.48010    0.04545    1.000
    H42      H        0.58350    0.48370    0.04970    1.000
    C63      C        0.49150    0.36490    0.05950    1.000
    H43      H        0.50130    0.32420    0.00860    1.000
    H44      H        0.42890    0.36390    0.06450    1.000
    C64      C        0.53830    0.31020    0.13790    1.000
    N31      N        0.82490    0.72350    0.23390    1.000
    N32      N        0.84530    0.80590    0.28330    1.000
    N33      N        0.93210    0.81810    0.29110    1.000
    N34      N        0.89760    0.67900    0.20930    1.000
    N35      N        0.23450    0.68900    0.22540    1.000
    N36      N        0.63870    0.84910    0.16530    1.000
    N37      N        0.63470    0.92460    0.22243    1.000
    N38      N        0.62990    0.01800    0.18084    1.000
    N39      N        0.63580    0.89010    0.08529    1.000
    N40      N        0.62170    0.20400    0.88211    1.000
    O13      O        0.53746    0.61340    0.15864    1.000
    O14      O        0.40567    0.54935    0.12298    1.000
    O15      O        0.60672    0.34690    0.17688    1.000
    O16      O        0.50779    0.22230    0.16004    1.000
