# CIF file generated by openbabel 3.1.0, see https://openbabel.org
data_I
_chemical_name_common 'image0'
_cell_length_a 11.343
_cell_length_b 14.311
_cell_length_c 16.928
_cell_angle_alpha 90
_cell_angle_beta 104.14
_cell_angle_gamma 90
_space_group_name_H-M_alt 'P 1'
_space_group_name_Hall 'P 1'
loop_
    _symmetry_equiv_pos_as_xyz
    x,y,z
loop_
    _atom_site_label
    _atom_site_type_symbol
    _atom_site_fract_x
    _atom_site_fract_y
    _atom_site_fract_z
    _atom_site_occupancy
    Cr1      Cr       0.08520    0.88354    0.82268    1.000
    Mn1      Mn       0.31673    0.90710    0.14258    1.000
    O1       O        0.15745    0.79883    0.91432    1.000
    O2       O        0.16242    0.98135    0.90111    1.000
    O3       O        0.23578    0.87850    0.78450    1.000
    O4       O        0.03844    0.97886    0.73632    1.000
    O5       O        0.93492    0.88652    0.85939    1.000
    O6       O        0.00299    0.78010    0.75513    1.000
    O7       O        0.25341    0.80673    0.04577    1.000
    O8       O        0.26707    0.99482    0.02986    1.000
    O9       O        0.33494    0.96458    0.71234    1.000
    O10      O        0.12974    0.07015    0.66144    1.000
    O11      O        0.78623    0.78852    0.86848    1.000
    O12      O        0.83452    0.69352    0.73779    1.000
    C1       C        0.20840    0.84151    0.97916    1.000
    C2       C        0.21400    0.94894    0.97076    1.000
    C3       C        0.24390    0.94495    0.73687    1.000
    C4       C        0.12760    0.00379    0.70799    1.000
    C5       C        0.86880    0.81368    0.83929    1.000
    C6       C        0.90350    0.75604    0.77120    1.000
    Cr2      Cr       0.58520    0.38354    0.82268    1.000
    Mn2      Mn       0.81673    0.40710    0.14258    1.000
    O13      O        0.65745    0.29883    0.91432    1.000
    O14      O        0.66242    0.48135    0.90111    1.000
    O15      O        0.73578    0.37850    0.78450    1.000
    O16      O        0.53844    0.47886    0.73632    1.000
    O17      O        0.43492    0.38652    0.85939    1.000
    O18      O        0.50299    0.28010    0.75513    1.000
    O19      O        0.75341    0.30673    0.04577    1.000
    O20      O        0.76707    0.49482    0.02986    1.000
    O21      O        0.83494    0.46458    0.71234    1.000
    O22      O        0.62974    0.57015    0.66144    1.000
    O23      O        0.28623    0.28852    0.86848    1.000
    O24      O        0.33452    0.19352    0.73779    1.000
    C7       C        0.70840    0.34151    0.97916    1.000
    C8       C        0.71400    0.44894    0.97076    1.000
    C9       C        0.74390    0.44495    0.73687    1.000
    C10      C        0.62760    0.50379    0.70799    1.000
    C11      C        0.36880    0.31368    0.83929    1.000
    C12      C        0.40350    0.25604    0.77120    1.000
    Cr3      Cr       0.08520    0.11646    0.32268    1.000
    Mn3      Mn       0.31673    0.09290    0.64258    1.000
    O25      O        0.15745    0.20117    0.41432    1.000
    O26      O        0.16242    0.01865    0.40111    1.000
    O27      O        0.23578    0.12150    0.28450    1.000
    O28      O        0.03844    0.02114    0.23632    1.000
    O29      O        0.93492    0.11348    0.35939    1.000
    O30      O        0.00299    0.21990    0.25513    1.000
    O31      O        0.25341    0.19327    0.54577    1.000
    O32      O        0.26707    0.00518    0.52986    1.000
    O33      O        0.33494    0.03542    0.21234    1.000
    O34      O        0.12974    0.92985    0.16144    1.000
    O35      O        0.78623    0.21148    0.36848    1.000
    O36      O        0.83452    0.30648    0.23779    1.000
    C13      C        0.20840    0.15849    0.47916    1.000
    C14      C        0.21400    0.05106    0.47076    1.000
    C15      C        0.24390    0.05505    0.23687    1.000
    C16      C        0.12760    0.99621    0.20799    1.000
    C17      C        0.86880    0.18632    0.33929    1.000
    C18      C        0.90350    0.24396    0.27120    1.000
    Cr4      Cr       0.58520    0.61646    0.32268    1.000
    Mn4      Mn       0.81673    0.59290    0.64258    1.000
    O37      O        0.65745    0.70117    0.41432    1.000
    O38      O        0.66242    0.51865    0.40111    1.000
    O39      O        0.73578    0.62150    0.28450    1.000
    O40      O        0.53844    0.52114    0.23632    1.000
    O41      O        0.43492    0.61348    0.35939    1.000
    O42      O        0.50299    0.71990    0.25513    1.000
    O43      O        0.75341    0.69327    0.54577    1.000
    O44      O        0.76707    0.50518    0.52986    1.000
    O45      O        0.83494    0.53542    0.21234    1.000
    O46      O        0.62974    0.42985    0.16144    1.000
    O47      O        0.28623    0.71148    0.36848    1.000
    O48      O        0.33452    0.80648    0.23779    1.000
    C19      C        0.70840    0.65849    0.47916    1.000
    C20      C        0.71400    0.55106    0.47076    1.000
    C21      C        0.74390    0.55505    0.23687    1.000
    C22      C        0.62760    0.49621    0.20799    1.000
    C23      C        0.36880    0.68632    0.33929    1.000
    C24      C        0.40350    0.74396    0.27120    1.000
