# CIF file generated by openbabel 3.1.0, see https://openbabel.org
data_I
_chemical_name_common 'image0'
_cell_length_a 18.148
_cell_length_b 9.665
_cell_length_c 30.969
_cell_angle_alpha 90
_cell_angle_beta 90.39
_cell_angle_gamma 90
_space_group_name_H-M_alt 'P 1'
_space_group_name_Hall 'P 1'
loop_
    _symmetry_equiv_pos_as_xyz
    x,y,z
loop_
    _atom_site_label
    _atom_site_type_symbol
    _atom_site_fract_x
    _atom_site_fract_y
    _atom_site_fract_z
    _atom_site_occupancy
    C1       C        0.26070    0.21840    0.22420    1.000
    C2       C        0.34880    0.96740    0.32180    1.000
    C3       C        0.55310    0.19180    0.31520    1.000
    C4       C        0.41960    0.04750    0.32060    1.000
    C5       C        0.84460    0.19500    0.31850    1.000
    C6       C        0.30030    0.44570    0.24740    1.000
    H1       H        0.33150    0.52130    0.24430    1.000
    C7       C        0.05490    0.98730    0.31560    1.000
    C8       C        0.91840    0.11940    0.31720    1.000
    C9       C        0.24650    0.44740    0.27890    1.000
    C10      C        0.23760    0.56610    0.30870    1.000
    C11      C        0.12710    0.91340    0.31390    1.000
    C12      C        0.62490    0.26500    0.31270    1.000
    C13      C        0.19810    0.33160    0.28240    1.000
    H2       H        0.16050    0.33210    0.30260    1.000
    C14      C        0.44450    0.09750    0.28130    1.000
    H3       H        0.41670    0.08300    0.25630    1.000
    C15      C        0.94190    0.06000    0.28010    1.000
    H4       H        0.91230    0.06350    0.25550    1.000
    C16      C        0.32230    0.59490    0.55470    1.000
    H5       H        0.36200    0.56000    0.57050    1.000
    C17      C        0.20740    0.22020    0.25590    1.000
    H6       H        0.17700    0.14350    0.25930    1.000
    C18      C        0.01120    0.99260    0.27840    1.000
    H7       H        0.02730    0.95250    0.25290    1.000
    C19      C        0.30810    0.33280    0.22040    1.000
    H8       H        0.34490    0.33250    0.19960    1.000
    C20      C        0.51060    0.16910    0.27900    1.000
    H9       H        0.52650    0.20220    0.25240    1.000
    C21      C        0.46130    0.07260    0.35680    1.000
    H10      H        0.44510    0.03850    0.38320    1.000
    C22      C        0.96220    0.11370    0.35430    1.000
    H11      H        0.94630    0.15440    0.37970    1.000
    C23      C        0.21550    0.70270    0.50780    1.000
    H12      H        0.17640    0.74110    0.49240    1.000
    C24      C        0.20960    0.68500    0.55210    1.000
    H13      H        0.16740    0.71550    0.56610    1.000
    C25      C        0.02990    0.04690    0.35300    1.000
    H14      H        0.05880    0.04240    0.37790    1.000
    C26      C        0.52490    0.14510    0.35570    1.000
    H15      H        0.55040    0.16440    0.38120    1.000
    C27      C        0.26690    0.09890    0.19490    1.000
    C28      C        0.27690    0.66540    0.48670    1.000
    C29      C        0.28390    0.68970    0.43910    1.000
    C30      C        0.32990    0.61160    0.51120    1.000
    H16      H        0.37370    0.58430    0.49830    1.000
    Co1      Co       0.24838    0.77783    0.35853    1.000
    Co2      Co       0.75078    0.40284    0.35836    1.000
    Co3      Co       0.25145    0.83180    0.25126    1.000
    N1       N        0.26300    0.62520    0.57475    1.000
    O1       O        0.30920    0.96900    0.28938    1.000
    O2       O        0.65600    0.29760    0.34786    1.000
    O3       O        0.15060    0.88300    0.27787    1.000
    O4       O        0.33550    0.90230    0.35632    1.000
    O5       O        0.80750    0.19220    0.28470    1.000
    O6       O        0.64870    0.28250    0.27541    1.000
    O7       O        0.15760    0.88660    0.34995    1.000
    O8       O        0.82780    0.25310    0.35283    1.000
    O9       O        0.27200    0.67750    0.30146    1.000
    O10      O        0.23380    0.98670    0.20392    1.000
    O11      O        0.30190    0.10850    0.16067    1.000
    O12      O        0.19860    0.55810    0.34090    1.000
    O13      O        0.23320    0.75260    0.42096    1.000
    O14      O        0.33530    0.64390    0.41910    1.000
    C31      C        0.73930    0.71840    0.27580    1.000
    C32      C        0.65120    0.46740    0.17820    1.000
    C33      C        0.44690    0.69180    0.18480    1.000
    C34      C        0.58040    0.54750    0.17940    1.000
    C35      C        0.15540    0.69500    0.18150    1.000
    C36      C        0.69970    0.94570    0.25260    1.000
    H17      H        0.66850    0.02130    0.25570    1.000
    C37      C        0.94510    0.48730    0.18440    1.000
    C38      C        0.08160    0.61940    0.18280    1.000
    C39      C        0.75350    0.94740    0.22110    1.000
    C40      C        0.76240    0.06610    0.19130    1.000
    C41      C        0.87290    0.41340    0.18610    1.000
    C42      C        0.37510    0.76500    0.18730    1.000
    C43      C        0.80190    0.83160    0.21760    1.000
    H18      H        0.83950    0.83210    0.19740    1.000
    C44      C        0.55550    0.59750    0.21870    1.000
    H19      H        0.58330    0.58300    0.24370    1.000
    C45      C        0.05810    0.56000    0.21990    1.000
    H20      H        0.08770    0.56350    0.24450    1.000
    C46      C        0.67770    0.09490    0.94530    1.000
    H21      H        0.63800    0.06000    0.92950    1.000
    C47      C        0.79260    0.72020    0.24410    1.000
    H22      H        0.82300    0.64350    0.24070    1.000
    C48      C        0.98880    0.49260    0.22160    1.000
    H23      H        0.97270    0.45250    0.24710    1.000
    C49      C        0.69190    0.83280    0.27960    1.000
    H24      H        0.65510    0.83250    0.30040    1.000
    C50      C        0.48940    0.66910    0.22100    1.000
    H25      H        0.47350    0.70220    0.24760    1.000
    C51      C        0.53870    0.57260    0.14320    1.000
    H26      H        0.55490    0.53850    0.11680    1.000
    C52      C        0.03780    0.61370    0.14570    1.000
    H27      H        0.05370    0.65440    0.12030    1.000
    C53      C        0.78450    0.20270    0.99220    1.000
    H28      H        0.82360    0.24110    0.00760    1.000
    C54      C        0.79040    0.18500    0.94790    1.000
    H29      H        0.83260    0.21550    0.93390    1.000
    C55      C        0.97010    0.54690    0.14700    1.000
    H30      H        0.94120    0.54240    0.12210    1.000
    C56      C        0.47510    0.64510    0.14430    1.000
    H31      H        0.44960    0.66440    0.11880    1.000
    C57      C        0.73310    0.59890    0.30510    1.000
    C58      C        0.72310    0.16540    0.01330    1.000
    C59      C        0.71610    0.18970    0.06090    1.000
    C60      C        0.67010    0.11160    0.98880    1.000
    H32      H        0.62630    0.08430    0.00170    1.000
    Co4      Co       0.75162    0.27783    0.14147    1.000
    Co5      Co       0.24922    0.90284    0.14164    1.000
    Co6      Co       0.74855    0.33180    0.24874    1.000
    N2       N        0.73700    0.12520    0.92525    1.000
    O15      O        0.69080    0.46900    0.21062    1.000
    O16      O        0.34400    0.79760    0.15214    1.000
    O17      O        0.84940    0.38300    0.22213    1.000
    O18      O        0.66450    0.40230    0.14368    1.000
    O19      O        0.19250    0.69220    0.21530    1.000
    O20      O        0.35130    0.78250    0.22459    1.000
    O21      O        0.84240    0.38660    0.15005    1.000
    O22      O        0.17220    0.75310    0.14717    1.000
    O23      O        0.72800    0.17750    0.19854    1.000
    O24      O        0.76620    0.48670    0.29608    1.000
    O25      O        0.69810    0.60850    0.33933    1.000
    O26      O        0.80140    0.05810    0.15910    1.000
    O27      O        0.76680    0.25260    0.07904    1.000
    O28      O        0.66470    0.14390    0.08090    1.000
    C61      C        0.73930    0.78160    0.77580    1.000
    C62      C        0.65120    0.03260    0.67820    1.000
    C63      C        0.44690    0.80820    0.68480    1.000
    C64      C        0.58040    0.95250    0.67940    1.000
    C65      C        0.15540    0.80500    0.68150    1.000
    C66      C        0.69970    0.55430    0.75260    1.000
    H33      H        0.66850    0.47870    0.75570    1.000
    C67      C        0.94510    0.01270    0.68440    1.000
    C68      C        0.08160    0.88060    0.68280    1.000
    C69      C        0.75350    0.55260    0.72110    1.000
    C70      C        0.76240    0.43390    0.69130    1.000
    C71      C        0.87290    0.08660    0.68610    1.000
    C72      C        0.37510    0.73500    0.68730    1.000
    C73      C        0.80190    0.66840    0.71760    1.000
    H34      H        0.83950    0.66790    0.69740    1.000
    C74      C        0.55550    0.90250    0.71870    1.000
    H35      H        0.58330    0.91700    0.74370    1.000
    C75      C        0.05810    0.94000    0.71990    1.000
    H36      H        0.08770    0.93650    0.74450    1.000
    C76      C        0.67770    0.40510    0.44530    1.000
    H37      H        0.63800    0.44000    0.42950    1.000
    C77      C        0.79260    0.77980    0.74410    1.000
    H38      H        0.82300    0.85650    0.74070    1.000
    C78      C        0.98880    0.00740    0.72160    1.000
    H39      H        0.97270    0.04750    0.74710    1.000
    C79      C        0.69190    0.66720    0.77960    1.000
    H40      H        0.65510    0.66750    0.80040    1.000
    C80      C        0.48940    0.83090    0.72100    1.000
    H41      H        0.47350    0.79780    0.74760    1.000
    C81      C        0.53870    0.92740    0.64320    1.000
    H42      H        0.55490    0.96150    0.61680    1.000
    C82      C        0.03780    0.88630    0.64570    1.000
    H43      H        0.05370    0.84560    0.62030    1.000
    C83      C        0.78450    0.29730    0.49220    1.000
    H44      H        0.82360    0.25890    0.50760    1.000
    C84      C        0.79040    0.31500    0.44790    1.000
    H45      H        0.83260    0.28450    0.43390    1.000
    C85      C        0.97010    0.95310    0.64700    1.000
    H46      H        0.94120    0.95760    0.62210    1.000
    C86      C        0.47510    0.85490    0.64430    1.000
    H47      H        0.44960    0.83560    0.61880    1.000
    C87      C        0.73310    0.90110    0.80510    1.000
    C88      C        0.72310    0.33460    0.51330    1.000
    C89      C        0.71610    0.31030    0.56090    1.000
    C90      C        0.67010    0.38840    0.48880    1.000
    H48      H        0.62630    0.41570    0.50170    1.000
    Co7      Co       0.75162    0.22217    0.64147    1.000
    Co8      Co       0.24922    0.59716    0.64164    1.000
    Co9      Co       0.74855    0.16820    0.74874    1.000
    N3       N        0.73700    0.37480    0.42525    1.000
    O29      O        0.69080    0.03100    0.71062    1.000
    O30      O        0.34400    0.70240    0.65214    1.000
    O31      O        0.84940    0.11700    0.72213    1.000
    O32      O        0.66450    0.09770    0.64368    1.000
    O33      O        0.19250    0.80780    0.71530    1.000
    O34      O        0.35130    0.71750    0.72459    1.000
    O35      O        0.84240    0.11340    0.65005    1.000
    O36      O        0.17220    0.74690    0.64717    1.000
    O37      O        0.72800    0.32250    0.69854    1.000
    O38      O        0.76620    0.01330    0.79608    1.000
    O39      O        0.69810    0.89150    0.83933    1.000
    O40      O        0.80140    0.44190    0.65910    1.000
    O41      O        0.76680    0.24740    0.57904    1.000
    O42      O        0.66470    0.35610    0.58090    1.000
    C91      C        0.26070    0.28160    0.72420    1.000
    C92      C        0.34880    0.53260    0.82180    1.000
    C93      C        0.55310    0.30820    0.81520    1.000
    C94      C        0.41960    0.45250    0.82060    1.000
    C95      C        0.84460    0.30500    0.81850    1.000
    C96      C        0.30030    0.05430    0.74740    1.000
    H49      H        0.33150    0.97870    0.74430    1.000
    C97      C        0.05490    0.51270    0.81560    1.000
    C98      C        0.91840    0.38060    0.81720    1.000
    C99      C        0.24650    0.05260    0.77890    1.000
    C100     C        0.23760    0.93390    0.80870    1.000
    C101     C        0.12710    0.58660    0.81390    1.000
    C102     C        0.62490    0.23500    0.81270    1.000
    C103     C        0.19810    0.16840    0.78240    1.000
    H50      H        0.16050    0.16790    0.80260    1.000
    C104     C        0.44450    0.40250    0.78130    1.000
    H51      H        0.41670    0.41700    0.75630    1.000
    C105     C        0.94190    0.44000    0.78010    1.000
    H52      H        0.91230    0.43650    0.75550    1.000
    C106     C        0.32230    0.90510    0.05470    1.000
    H53      H        0.36200    0.94000    0.07050    1.000
    C107     C        0.20740    0.27980    0.75590    1.000
    H54      H        0.17700    0.35650    0.75930    1.000
    C108     C        0.01120    0.50740    0.77840    1.000
    H55      H        0.02730    0.54750    0.75290    1.000
    C109     C        0.30810    0.16720    0.72040    1.000
    H56      H        0.34490    0.16750    0.69960    1.000
    C110     C        0.51060    0.33090    0.77900    1.000
    H57      H        0.52650    0.29780    0.75240    1.000
    C111     C        0.46130    0.42740    0.85680    1.000
    H58      H        0.44510    0.46150    0.88320    1.000
    C112     C        0.96220    0.38630    0.85430    1.000
    H59      H        0.94630    0.34560    0.87970    1.000
    C113     C        0.21550    0.79730    0.00780    1.000
    H60      H        0.17640    0.75890    0.99240    1.000
    C114     C        0.20960    0.81500    0.05210    1.000
    H61      H        0.16740    0.78450    0.06610    1.000
    C115     C        0.02990    0.45310    0.85300    1.000
    H62      H        0.05880    0.45760    0.87790    1.000
    C116     C        0.52490    0.35490    0.85570    1.000
    H63      H        0.55040    0.33560    0.88120    1.000
    C117     C        0.26690    0.40110    0.69490    1.000
    C118     C        0.27690    0.83460    0.98670    1.000
    C119     C        0.28390    0.81030    0.93910    1.000
    C120     C        0.32990    0.88840    0.01120    1.000
    H64      H        0.37370    0.91570    0.99830    1.000
    Co10     Co       0.24838    0.72217    0.85853    1.000
    Co11     Co       0.75078    0.09716    0.85836    1.000
    Co12     Co       0.25145    0.66820    0.75126    1.000
    N4       N        0.26300    0.87480    0.07475    1.000
    O43      O        0.30920    0.53100    0.78938    1.000
    O44      O        0.65600    0.20240    0.84786    1.000
    O45      O        0.15060    0.61700    0.77787    1.000
    O46      O        0.33550    0.59770    0.85632    1.000
    O47      O        0.80750    0.30780    0.78470    1.000
    O48      O        0.64870    0.21750    0.77541    1.000
    O49      O        0.15760    0.61340    0.84995    1.000
    O50      O        0.82780    0.24690    0.85283    1.000
    O51      O        0.27200    0.82250    0.80146    1.000
    O52      O        0.23380    0.51330    0.70392    1.000
    O53      O        0.30190    0.39150    0.66067    1.000
    O54      O        0.19860    0.94190    0.84090    1.000
    O55      O        0.23320    0.74740    0.92096    1.000
    O56      O        0.33530    0.85610    0.91910    1.000
