# CIF file generated by openbabel 3.1.0, see https://openbabel.org
data_I
_chemical_name_common 'image0'
_cell_length_a 21.703
_cell_length_b 20.062
_cell_length_c 22.121
_cell_angle_alpha 90
_cell_angle_beta 108.799
_cell_angle_gamma 90
_space_group_name_H-M_alt 'P 1'
_space_group_name_Hall 'P 1'
loop_
    _symmetry_equiv_pos_as_xyz
    x,y,z
loop_
    _atom_site_label
    _atom_site_type_symbol
    _atom_site_fract_x
    _atom_site_fract_y
    _atom_site_fract_z
    _atom_site_occupancy
    Zn1      Zn       0.13937    0.66255    0.94414    1.000
    Zn2      Zn       0.60202    0.86219    0.74017    1.000
    C1       C        0.27805    0.42294    0.02273    1.000
    C2       C        0.29995    0.40663    0.97331    1.000
    H1       H        0.30070    0.43870    0.94200    1.000
    C3       C        0.32133    0.34090    0.97001    1.000
    C4       C        0.32219    0.29411    0.01674    1.000
    H2       H        0.33820    0.25030    0.01520    1.000
    C5       C        0.29903    0.31318    0.06545    1.000
    C6       C        0.27652    0.37732    0.06981    1.000
    H3       H        0.26070    0.38960    0.10360    1.000
    C7       C        0.21487    0.52510    0.97968    1.000
    H4       H        0.19870    0.51080    0.93650    1.000
    C8       C        0.23513    0.58377    0.06562    1.000
    H5       H        0.23530    0.61960    0.09380    1.000
    C9       C        0.26861    0.52636    0.08293    1.000
    H6       H        0.29550    0.51420    0.12460    1.000
    C10      C        0.36852    0.36260    0.88340    1.000
    H7       H        0.37530    0.40910    0.89070    1.000
    C11      C        0.36491    0.26281    0.84424    1.000
    H8       H        0.36890    0.22690    0.81780    1.000
    C12      C        0.34263    0.25792    0.89432    1.000
    H9       H        0.32840    0.21850    0.90970    1.000
    C13      C        0.34999    0.22636    0.14500    1.000
    H10      H        0.38930    0.22270    0.13510    1.000
    C14      C        0.27518    0.21256    0.18958    1.000
    H11      H        0.25320    0.19650    0.21750    1.000
    C15      C        0.25106    0.25817    0.14274    1.000
    H12      H        0.21000    0.27980    0.13160    1.000
    C16      C        0.04556    0.64368    0.14492    1.000
    C17      C        0.01555    0.58154    0.13485    1.000
    H13      H        0.01020    0.55770    0.09640    1.000
    C18      C        0.99352    0.55491    0.18216    1.000
    C19      C        0.00012    0.58971    0.23823    1.000
    H14      H        0.98380    0.57180    0.26980    1.000
    C20      C        0.03069    0.65049    0.24695    1.000
    C21      C        0.05350    0.67941    0.20056    1.000
    H15      H        0.07370    0.72200    0.20700    1.000
    C22      C        0.09105    0.64176    0.05534    1.000
    H16      H        0.09660    0.59490    0.05400    1.000
    C23      C        0.08913    0.74761    0.03464    1.000
    H17      H        0.09390    0.78880    0.01540    1.000
    C24      C        0.06430    0.74056    0.08272    1.000
    H18      H        0.04860    0.77510    0.10330    1.000
    C25      C        0.93225    0.46092    0.11602    1.000
    H19      H        0.92990    0.47880    0.07560    1.000
    C26      C        0.92089    0.39675    0.19021    1.000
    H20      H        0.90830    0.36000    0.21070    1.000
    C27      C        0.95481    0.44996    0.22019    1.000
    H21      H        0.97050    0.45770    0.26490    1.000
    C28      C        0.08948    0.72379    0.33797    1.000
    H22      H        0.12940    0.72590    0.32890    1.000
    C29      C        0.01552    0.73948    0.38178    1.000
    H23      H        0.99370    0.75480    0.41010    1.000
    C30      C        0.98951    0.69781    0.33165    1.000
    H24      H        0.94690    0.67940    0.31820    1.000
    C31      C        0.32786    0.70216    0.83517    1.000
    C32      C        0.36030    0.75571    0.81905    1.000
    H25      H        0.35910    0.79890    0.83620    1.000
    C33      C        0.39468    0.74337    0.77654    1.000
    C34      C        0.39561    0.68086    0.74971    1.000
    H26      H        0.41820    0.67360    0.71990    1.000
    C35      C        0.36241    0.62918    0.76787    1.000
    C36      C        0.32849    0.63855    0.81035    1.000
    H27      H        0.30630    0.60270    0.82230    1.000
    C37      C        0.23997    0.67827    0.88072    1.000
    H28      H        0.22080    0.64260    0.85280    1.000
    C38      C        0.26062    0.75252    0.95557    1.000
    H29      H        0.25740    0.77820    0.99050    1.000
    C39      C        0.30630    0.76037    0.92763    1.000
    H30      H        0.34060    0.79210    0.93850    1.000
    C40      C        0.49042    0.78810    0.75507    1.000
    H31      H        0.51350    0.74710    0.76050    1.000
    C41      C        0.46376    0.89282    0.73821    1.000
    H32      H        0.46600    0.93900    0.72960    1.000
    C42      C        0.41312    0.86215    0.74898    1.000
    H33      H        0.37350    0.88220    0.74910    1.000
    C43      C        0.37442    0.50765    0.77518    1.000
    H34      H        0.37660    0.50410    0.81870    1.000
    C44      C        0.37537    0.48346    0.67992    1.000
    H35      H        0.37860    0.45920    0.64420    1.000
    C45      C        0.36500    0.55009    0.68138    1.000
    H36      H        0.35900    0.58070    0.64720    1.000
    N1       N        0.20057    0.58302    0.00101    1.000
    N2       N        0.25578    0.48904    0.02799    1.000
    N3       N        0.38121    0.32940    0.83737    1.000
    N4       N        0.34449    0.32168    0.91888    1.000
    N5       N        0.33673    0.19280    0.19065    1.000
    N6       N        0.29961    0.26677    0.11415    1.000
    N7       N        0.10675    0.68539    0.01742    1.000
    N8       N        0.06603    0.67372    0.09628    1.000
    N9       N        0.90701    0.40386    0.12464    1.000
    N10      N        0.96234    0.49108    0.17315    1.000
    N11      N        0.07761    0.75613    0.38561    1.000
    N12      N        0.03734    0.68774    0.30426    1.000
    N13      N        0.21858    0.70127    0.92616    1.000
    N14      N        0.29360    0.71301    0.87951    1.000
    N15      N        0.51243    0.84610    0.74173    1.000
    N16      N        0.43012    0.79605    0.75974    1.000
    N17      N        0.38042    0.45686    0.73863    1.000
    N18      N        0.36483    0.56430    0.74172    1.000
    Zn3      Zn       0.86063    0.16255    0.55586    1.000
    Zn4      Zn       0.39798    0.36219    0.75982    1.000
    C46      C        0.72195    0.92294    0.47727    1.000
    C47      C        0.70005    0.90663    0.52669    1.000
    H37      H        0.69930    0.93870    0.55800    1.000
    C48      C        0.67867    0.84090    0.52999    1.000
    C49      C        0.67781    0.79411    0.48326    1.000
    H38      H        0.66180    0.75030    0.48480    1.000
    C50      C        0.70097    0.81318    0.43455    1.000
    C51      C        0.72348    0.87732    0.43019    1.000
    H39      H        0.73930    0.88960    0.39640    1.000
    C52      C        0.78513    0.02510    0.52032    1.000
    H40      H        0.80130    0.01080    0.56350    1.000
    C53      C        0.76487    0.08377    0.43438    1.000
    H41      H        0.76470    0.11960    0.40620    1.000
    C54      C        0.73139    0.02636    0.41707    1.000
    H42      H        0.70450    0.01420    0.37540    1.000
    C55      C        0.63148    0.86260    0.61660    1.000
    H43      H        0.62470    0.90910    0.60930    1.000
    C56      C        0.63509    0.76281    0.65576    1.000
    H44      H        0.63110    0.72690    0.68220    1.000
    C57      C        0.65737    0.75792    0.60568    1.000
    H45      H        0.67160    0.71850    0.59030    1.000
    C58      C        0.65001    0.72636    0.35500    1.000
    H46      H        0.61070    0.72270    0.36490    1.000
    C59      C        0.72482    0.71256    0.31042    1.000
    H47      H        0.74680    0.69650    0.28250    1.000
    C60      C        0.74894    0.75817    0.35726    1.000
    H48      H        0.79000    0.77980    0.36840    1.000
    C61      C        0.95444    0.14368    0.35508    1.000
    C62      C        0.98445    0.08154    0.36515    1.000
    H49      H        0.98980    0.05770    0.40360    1.000
    C63      C        0.00648    0.05491    0.31784    1.000
    C64      C        0.99988    0.08971    0.26177    1.000
    H50      H        0.01620    0.07180    0.23020    1.000
    C65      C        0.96931    0.15049    0.25305    1.000
    C66      C        0.94650    0.17941    0.29944    1.000
    H51      H        0.92630    0.22200    0.29300    1.000
    C67      C        0.90895    0.14176    0.44466    1.000
    H52      H        0.90340    0.09490    0.44600    1.000
    C68      C        0.91087    0.24761    0.46536    1.000
    H53      H        0.90610    0.28880    0.48460    1.000
    C69      C        0.93570    0.24056    0.41728    1.000
    H54      H        0.95140    0.27510    0.39670    1.000
    C70      C        0.06775    0.96092    0.38398    1.000
    H55      H        0.07010    0.97880    0.42440    1.000
    C71      C        0.07911    0.89675    0.30979    1.000
    H56      H        0.09170    0.86000    0.28930    1.000
    C72      C        0.04519    0.94996    0.27981    1.000
    H57      H        0.02950    0.95770    0.23510    1.000
    C73      C        0.91052    0.22379    0.16203    1.000
    H58      H        0.87060    0.22590    0.17110    1.000
    C74      C        0.98448    0.23948    0.11822    1.000
    H59      H        0.00630    0.25480    0.08990    1.000
    C75      C        0.01049    0.19781    0.16835    1.000
    H60      H        0.05310    0.17940    0.18180    1.000
    C76      C        0.67214    0.20216    0.66483    1.000
    C77      C        0.63970    0.25571    0.68095    1.000
    H61      H        0.64090    0.29890    0.66380    1.000
    C78      C        0.60532    0.24337    0.72346    1.000
    C79      C        0.60439    0.18086    0.75029    1.000
    H62      H        0.58180    0.17360    0.78010    1.000
    C80      C        0.63759    0.12918    0.73213    1.000
    C81      C        0.67151    0.13855    0.68965    1.000
    H63      H        0.69370    0.10270    0.67770    1.000
    C82      C        0.76003    0.17827    0.61928    1.000
    H64      H        0.77920    0.14260    0.64720    1.000
    C83      C        0.73938    0.25252    0.54443    1.000
    H65      H        0.74260    0.27820    0.50950    1.000
    C84      C        0.69370    0.26037    0.57237    1.000
    H66      H        0.65940    0.29210    0.56150    1.000
    C85      C        0.50958    0.28810    0.74493    1.000
    H67      H        0.48650    0.24710    0.73950    1.000
    C86      C        0.53624    0.39282    0.76179    1.000
    H68      H        0.53400    0.43900    0.77040    1.000
    C87      C        0.58688    0.36215    0.75102    1.000
    H69      H        0.62650    0.38220    0.75090    1.000
    C88      C        0.62558    0.00765    0.72482    1.000
    H70      H        0.62340    0.00410    0.68130    1.000
    C89      C        0.62463    0.98346    0.82008    1.000
    H71      H        0.62140    0.95920    0.85580    1.000
    C90      C        0.63500    0.05009    0.81862    1.000
    H72      H        0.64100    0.08070    0.85280    1.000
    N19      N        0.79943    0.08302    0.49899    1.000
    N20      N        0.74422    0.98904    0.47201    1.000
    N21      N        0.61879    0.82940    0.66263    1.000
    N22      N        0.65551    0.82168    0.58112    1.000
    N23      N        0.66327    0.69280    0.30935    1.000
    N24      N        0.70039    0.76677    0.38585    1.000
    N25      N        0.89325    0.18539    0.48258    1.000
    N26      N        0.93397    0.17372    0.40372    1.000
    N27      N        0.09299    0.90386    0.37536    1.000
    N28      N        0.03766    0.99108    0.32685    1.000
    N29      N        0.92239    0.25613    0.11439    1.000
    N30      N        0.96266    0.18774    0.19574    1.000
    N31      N        0.78142    0.20127    0.57384    1.000
    N32      N        0.70640    0.21301    0.62049    1.000
    N33      N        0.48757    0.34610    0.75827    1.000
    N34      N        0.56988    0.29605    0.74026    1.000
    N35      N        0.61958    0.95686    0.76137    1.000
    N36      N        0.63517    0.06430    0.75828    1.000
    Zn5      Zn       0.86063    0.33745    0.05586    1.000
    Zn6      Zn       0.39798    0.13781    0.25982    1.000
    C91      C        0.72195    0.57706    0.97727    1.000
    C92      C        0.70005    0.59337    0.02669    1.000
    H73      H        0.69930    0.56130    0.05800    1.000
    C93      C        0.67867    0.65910    0.02999    1.000
    C94      C        0.67781    0.70589    0.98326    1.000
    H74      H        0.66180    0.74970    0.98480    1.000
    C95      C        0.70097    0.68682    0.93455    1.000
    C96      C        0.72348    0.62268    0.93019    1.000
    H75      H        0.73930    0.61040    0.89640    1.000
    C97      C        0.78513    0.47490    0.02032    1.000
    H76      H        0.80130    0.48920    0.06350    1.000
    C98      C        0.76487    0.41623    0.93438    1.000
    H77      H        0.76470    0.38040    0.90620    1.000
    C99      C        0.73139    0.47364    0.91707    1.000
    H78      H        0.70450    0.48580    0.87540    1.000
    C100     C        0.63148    0.63740    0.11660    1.000
    H79      H        0.62470    0.59090    0.10930    1.000
    C101     C        0.63509    0.73719    0.15576    1.000
    H80      H        0.63110    0.77310    0.18220    1.000
    C102     C        0.65737    0.74208    0.10568    1.000
    H81      H        0.67160    0.78150    0.09030    1.000
    C103     C        0.65001    0.77364    0.85500    1.000
    H82      H        0.61070    0.77730    0.86490    1.000
    C104     C        0.72482    0.78744    0.81042    1.000
    H83      H        0.74680    0.80350    0.78250    1.000
    C105     C        0.74894    0.74183    0.85726    1.000
    H84      H        0.79000    0.72020    0.86840    1.000
    C106     C        0.95444    0.35632    0.85508    1.000
    C107     C        0.98445    0.41846    0.86515    1.000
    H85      H        0.98980    0.44230    0.90360    1.000
    C108     C        0.00648    0.44509    0.81784    1.000
    C109     C        0.99988    0.41029    0.76177    1.000
    H86      H        0.01620    0.42820    0.73020    1.000
    C110     C        0.96931    0.34951    0.75305    1.000
    C111     C        0.94650    0.32059    0.79944    1.000
    H87      H        0.92630    0.27800    0.79300    1.000
    C112     C        0.90895    0.35824    0.94466    1.000
    H88      H        0.90340    0.40510    0.94600    1.000
    C113     C        0.91087    0.25239    0.96536    1.000
    H89      H        0.90610    0.21120    0.98460    1.000
    C114     C        0.93570    0.25944    0.91728    1.000
    H90      H        0.95140    0.22490    0.89670    1.000
    C115     C        0.06775    0.53908    0.88398    1.000
    H91      H        0.07010    0.52120    0.92440    1.000
    C116     C        0.07911    0.60325    0.80979    1.000
    H92      H        0.09170    0.64000    0.78930    1.000
    C117     C        0.04519    0.55004    0.77981    1.000
    H93      H        0.02950    0.54230    0.73510    1.000
    C118     C        0.91052    0.27621    0.66203    1.000
    H94      H        0.87060    0.27410    0.67110    1.000
    C119     C        0.98448    0.26052    0.61822    1.000
    H95      H        0.00630    0.24520    0.58990    1.000
    C120     C        0.01049    0.30219    0.66835    1.000
    H96      H        0.05310    0.32060    0.68180    1.000
    C121     C        0.67214    0.29784    0.16483    1.000
    C122     C        0.63970    0.24429    0.18095    1.000
    H97      H        0.64090    0.20110    0.16380    1.000
    C123     C        0.60532    0.25663    0.22346    1.000
    C124     C        0.60439    0.31914    0.25029    1.000
    H98      H        0.58180    0.32640    0.28010    1.000
    C125     C        0.63759    0.37082    0.23213    1.000
    C126     C        0.67151    0.36145    0.18965    1.000
    H99      H        0.69370    0.39730    0.17770    1.000
    C127     C        0.76003    0.32173    0.11928    1.000
    H100     H        0.77920    0.35740    0.14720    1.000
    C128     C        0.73938    0.24748    0.04443    1.000
    H101     H        0.74260    0.22180    0.00950    1.000
    C129     C        0.69370    0.23963    0.07237    1.000
    H102     H        0.65940    0.20790    0.06150    1.000
    C130     C        0.50958    0.21190    0.24493    1.000
    H103     H        0.48650    0.25290    0.23950    1.000
    C131     C        0.53624    0.10718    0.26179    1.000
    H104     H        0.53400    0.06100    0.27040    1.000
    C132     C        0.58688    0.13785    0.25102    1.000
    H105     H        0.62650    0.11780    0.25090    1.000
    C133     C        0.62558    0.49235    0.22482    1.000
    H106     H        0.62340    0.49590    0.18130    1.000
    C134     C        0.62463    0.51654    0.32008    1.000
    H107     H        0.62140    0.54080    0.35580    1.000
    C135     C        0.63500    0.44991    0.31862    1.000
    H108     H        0.64100    0.41930    0.35280    1.000
    N37      N        0.79943    0.41698    0.99899    1.000
    N38      N        0.74422    0.51096    0.97201    1.000
    N39      N        0.61879    0.67060    0.16263    1.000
    N40      N        0.65551    0.67832    0.08112    1.000
    N41      N        0.66327    0.80720    0.80935    1.000
    N42      N        0.70039    0.73323    0.88585    1.000
    N43      N        0.89325    0.31461    0.98258    1.000
    N44      N        0.93397    0.32628    0.90372    1.000
    N45      N        0.09299    0.59614    0.87536    1.000
    N46      N        0.03766    0.50892    0.82685    1.000
    N47      N        0.92239    0.24387    0.61439    1.000
    N48      N        0.96266    0.31226    0.69574    1.000
    N49      N        0.78142    0.29873    0.07384    1.000
    N50      N        0.70640    0.28699    0.12049    1.000
    N51      N        0.48757    0.15390    0.25827    1.000
    N52      N        0.56988    0.20395    0.24026    1.000
    N53      N        0.61958    0.54314    0.26137    1.000
    N54      N        0.63517    0.43570    0.25828    1.000
    Zn7      Zn       0.13937    0.83745    0.44414    1.000
    Zn8      Zn       0.60202    0.63781    0.24017    1.000
    C136     C        0.27805    0.07706    0.52273    1.000
    C137     C        0.29995    0.09337    0.47331    1.000
    H109     H        0.30070    0.06130    0.44200    1.000
    C138     C        0.32133    0.15910    0.47001    1.000
    C139     C        0.32219    0.20589    0.51674    1.000
    H110     H        0.33820    0.24970    0.51520    1.000
    C140     C        0.29903    0.18682    0.56545    1.000
    C141     C        0.27652    0.12268    0.56981    1.000
    H111     H        0.26070    0.11040    0.60360    1.000
    C142     C        0.21487    0.97490    0.47968    1.000
    H112     H        0.19870    0.98920    0.43650    1.000
    C143     C        0.23513    0.91623    0.56562    1.000
    H113     H        0.23530    0.88040    0.59380    1.000
    C144     C        0.26861    0.97364    0.58293    1.000
    H114     H        0.29550    0.98580    0.62460    1.000
    C145     C        0.36852    0.13740    0.38340    1.000
    H115     H        0.37530    0.09090    0.39070    1.000
    C146     C        0.36491    0.23719    0.34424    1.000
    H116     H        0.36890    0.27310    0.31780    1.000
    C147     C        0.34263    0.24208    0.39432    1.000
    H117     H        0.32840    0.28150    0.40970    1.000
    C148     C        0.34999    0.27364    0.64500    1.000
    H118     H        0.38930    0.27730    0.63510    1.000
    C149     C        0.27518    0.28744    0.68958    1.000
    H119     H        0.25320    0.30350    0.71750    1.000
    C150     C        0.25106    0.24183    0.64274    1.000
    H120     H        0.21000    0.22020    0.63160    1.000
    C151     C        0.04556    0.85632    0.64492    1.000
    C152     C        0.01555    0.91846    0.63485    1.000
    H121     H        0.01020    0.94230    0.59640    1.000
    C153     C        0.99352    0.94509    0.68216    1.000
    C154     C        0.00012    0.91029    0.73823    1.000
    H122     H        0.98380    0.92820    0.76980    1.000
    C155     C        0.03069    0.84951    0.74695    1.000
    C156     C        0.05350    0.82059    0.70056    1.000
    H123     H        0.07370    0.77800    0.70700    1.000
    C157     C        0.09105    0.85824    0.55534    1.000
    H124     H        0.09660    0.90510    0.55400    1.000
    C158     C        0.08913    0.75239    0.53464    1.000
    H125     H        0.09390    0.71120    0.51540    1.000
    C159     C        0.06430    0.75944    0.58272    1.000
    H126     H        0.04860    0.72490    0.60330    1.000
    C160     C        0.93225    0.03908    0.61602    1.000
    H127     H        0.92990    0.02120    0.57560    1.000
    C161     C        0.92089    0.10325    0.69021    1.000
    H128     H        0.90830    0.14000    0.71070    1.000
    C162     C        0.95481    0.05004    0.72019    1.000
    H129     H        0.97050    0.04230    0.76490    1.000
    C163     C        0.08948    0.77621    0.83797    1.000
    H130     H        0.12940    0.77410    0.82890    1.000
    C164     C        0.01552    0.76052    0.88178    1.000
    H131     H        0.99370    0.74520    0.91010    1.000
    C165     C        0.98951    0.80219    0.83165    1.000
    H132     H        0.94690    0.82060    0.81820    1.000
    C166     C        0.32786    0.79784    0.33517    1.000
    C167     C        0.36030    0.74429    0.31905    1.000
    H133     H        0.35910    0.70110    0.33620    1.000
    C168     C        0.39468    0.75663    0.27654    1.000
    C169     C        0.39561    0.81914    0.24971    1.000
    H134     H        0.41820    0.82640    0.21990    1.000
    C170     C        0.36241    0.87082    0.26787    1.000
    C171     C        0.32849    0.86145    0.31035    1.000
    H135     H        0.30630    0.89730    0.32230    1.000
    C172     C        0.23997    0.82173    0.38072    1.000
    H136     H        0.22080    0.85740    0.35280    1.000
    C173     C        0.26062    0.74748    0.45557    1.000
    H137     H        0.25740    0.72180    0.49050    1.000
    C174     C        0.30630    0.73963    0.42763    1.000
    H138     H        0.34060    0.70790    0.43850    1.000
    C175     C        0.49042    0.71190    0.25507    1.000
    H139     H        0.51350    0.75290    0.26050    1.000
    C176     C        0.46376    0.60718    0.23821    1.000
    H140     H        0.46600    0.56100    0.22960    1.000
    C177     C        0.41312    0.63785    0.24898    1.000
    H141     H        0.37350    0.61780    0.24910    1.000
    C178     C        0.37442    0.99235    0.27518    1.000
    H142     H        0.37660    0.99590    0.31870    1.000
    C179     C        0.37537    0.01654    0.17992    1.000
    H143     H        0.37860    0.04080    0.14420    1.000
    C180     C        0.36500    0.94991    0.18138    1.000
    H144     H        0.35900    0.91930    0.14720    1.000
    N55      N        0.20057    0.91698    0.50101    1.000
    N56      N        0.25578    0.01096    0.52799    1.000
    N57      N        0.38121    0.17060    0.33737    1.000
    N58      N        0.34449    0.17832    0.41888    1.000
    N59      N        0.33673    0.30720    0.69065    1.000
    N60      N        0.29961    0.23323    0.61415    1.000
    N61      N        0.10675    0.81461    0.51742    1.000
    N62      N        0.06603    0.82628    0.59628    1.000
    N63      N        0.90701    0.09614    0.62464    1.000
    N64      N        0.96234    0.00892    0.67315    1.000
    N65      N        0.07761    0.74387    0.88561    1.000
    N66      N        0.03734    0.81226    0.80426    1.000
    N67      N        0.21858    0.79873    0.42616    1.000
    N68      N        0.29360    0.78699    0.37951    1.000
    N69      N        0.51243    0.65390    0.24173    1.000
    N70      N        0.43012    0.70395    0.25974    1.000
    N71      N        0.38042    0.04314    0.23863    1.000
    N72      N        0.36483    0.93570    0.24172    1.000
