# CIF file generated by openbabel 3.1.0, see https://openbabel.org
data_I
_chemical_name_common 'SOVHAM_clean'
_cell_length_a 7.101
_cell_length_b 7.626
_cell_length_c 11.3156
_cell_angle_alpha 90
_cell_angle_beta 106.603
_cell_angle_gamma 90
_space_group_name_H-M_alt 'P 1'
_space_group_name_Hall 'P 1'
loop_
    _symmetry_equiv_pos_as_xyz
    x,y,z
loop_
    _atom_site_label
    _atom_site_type_symbol
    _atom_site_fract_x
    _atom_site_fract_y
    _atom_site_fract_z
    _atom_site_occupancy
    Cd1      Cd       0.00000    0.00000    0.00000    1.000
    Ni1      Ni       0.50000    0.50000    0.00000    1.000
    H1       H        0.82099    0.88475    0.75741    1.000
    H2       H        0.53912    0.88475    0.83291    1.000
    H3       H        0.48928    0.88475    0.60835    1.000
    H4       H        0.19702    0.88475    0.68800    1.000
    H5       H        0.17901    0.88475    0.24259    1.000
    H6       H        0.46088    0.88475    0.16709    1.000
    H7       H        0.51072    0.88475    0.39165    1.000
    H8       H        0.80298    0.88475    0.31200    1.000
    H9       H        0.17901    0.11525    0.24259    1.000
    H10      H        0.46088    0.11525    0.16709    1.000
    H11      H        0.51072    0.11525    0.39165    1.000
    H12      H        0.80298    0.11525    0.31200    1.000
    H13      H        0.82099    0.11525    0.75741    1.000
    H14      H        0.53912    0.11525    0.83291    1.000
    H15      H        0.48928    0.11525    0.60835    1.000
    H16      H        0.19702    0.11525    0.68800    1.000
    C1       C        0.69310    0.67130    0.03800    1.000
    C2       C        0.30690    0.67130    0.96200    1.000
    C3       C        0.30690    0.32870    0.96200    1.000
    C4       C        0.69310    0.32870    0.03800    1.000
    C5       C        0.57590    0.00000    0.78790    1.000
    C6       C        0.45280    0.00000    0.65480    1.000
    C7       C        0.23340    0.00000    0.64240    1.000
    C8       C        0.11050    0.00000    0.50650    1.000
    C9       C        0.42410    0.00000    0.21210    1.000
    C10      C        0.54720    0.00000    0.34520    1.000
    C11      C        0.76660    0.00000    0.35760    1.000
    C12      C        0.88950    0.00000    0.49350    1.000
    N1       N        0.81180    0.77700    0.05730    1.000
    N2       N        0.18820    0.77700    0.94270    1.000
    N3       N        0.18820    0.22300    0.94270    1.000
    N4       N        0.81180    0.22300    0.05730    1.000
    N5       N        0.78790    0.00000    0.80510    1.000
    N6       N        0.21210    0.00000    0.19490    1.000
