# CIF file generated by openbabel 3.1.0, see https://openbabel.org
data_I
_chemical_name_common 'image0'
_cell_length_a 34.7408
_cell_length_b 14.9018
_cell_length_c 31.0584
_cell_angle_alpha 90
_cell_angle_beta 101.437
_cell_angle_gamma 90
_space_group_name_H-M_alt 'P 1'
_space_group_name_Hall 'P 1'
loop_
    _symmetry_equiv_pos_as_xyz
    x,y,z
loop_
    _atom_site_label
    _atom_site_type_symbol
    _atom_site_fract_x
    _atom_site_fract_y
    _atom_site_fract_z
    _atom_site_occupancy
    N1       N        0.81437    0.00270    0.72248    1.000
    C1       C        0.78460    0.96860    0.69440    1.000
    H1       H        0.76730    0.00790    0.67580    1.000
    C2       C        0.77784    0.87660    0.69110    1.000
    H2       H        0.75640    0.85390    0.67010    1.000
    C3       C        0.80193    0.81900    0.71797    1.000
    C4       C        0.83350    0.85620    0.74770    1.000
    H3       H        0.85110    0.81870    0.76700    1.000
    C5       C        0.83860    0.94830    0.74840    1.000
    H4       H        0.86030    0.97330    0.76830    1.000
    N2       N        0.66907    0.46580    0.60560    1.000
    C6       C        0.67669    0.55210    0.60017    1.000
    H5       H        0.66140    0.58340    0.57610    1.000
    C7       C        0.70609    0.59840    0.62824    1.000
    H6       H        0.71070    0.66010    0.62350    1.000
    C8       C        0.72848    0.55290    0.66316    1.000
    C9       C        0.72030    0.46270    0.66860    1.000
    H7       H        0.73510    0.42960    0.69230    1.000
    C10      C        0.69084    0.42220    0.63964    1.000
    H8       H        0.68550    0.36060    0.64380    1.000
    N3       N        0.87956    0.44460    0.85882    1.000
    C11      C        0.88600    0.53070    0.85150    1.000
    H9       H        0.90720    0.55990    0.87020    1.000
    C12      C        0.86370    0.57970    0.81840    1.000
    H10      H        0.86860    0.64190    0.81530    1.000
    C13      C        0.83401    0.53700    0.78937    1.000
    C14      C        0.82748    0.44760    0.79636    1.000
    H11      H        0.80720    0.41600    0.77730    1.000
    C15      C        0.85076    0.40420    0.83150    1.000
    H12      H        0.84580    0.34260    0.83620    1.000
    C16      C        0.79557    0.72020    0.71855    1.000
    N4       N        0.76622    0.68560    0.68886    1.000
    C17      C        0.76051    0.59830    0.69414    1.000
    N5       N        0.78101    0.54670    0.72619    1.000
    C18      C        0.81026    0.58850    0.75254    1.000
    N6       N        0.81945    0.67590    0.74974    1.000
    N7       N        0.57937    0.48820    0.55729    1.000
    C19      C        0.56470    0.53520    0.52190    1.000
    H13      H        0.57620    0.52980    0.49670    1.000
    C20      C        0.53320    0.59190    0.52023    1.000
    H14      H        0.52360    0.62560    0.49440    1.000
    C21      C        0.51585    0.59970    0.55565    1.000
    C22      C        0.53330    0.55480    0.59380    1.000
    H15      H        0.52370    0.56220    0.62010    1.000
    C23      C        0.56450    0.50000    0.59250    1.000
    H16      H        0.57600    0.46870    0.61850    1.000
    N8       N        0.43205    0.01750    0.45224    1.000
    C24      C        0.46304    0.96480    0.45289    1.000
    H17      H        0.48140    0.98000    0.43520    1.000
    C25      C        0.46923    0.88850    0.47872    1.000
    H18      H        0.49140    0.85150    0.47840    1.000
    C26      C        0.44315    0.86690    0.50479    1.000
    C27      C        0.41170    0.92300    0.50520    1.000
    H19      H        0.39350    0.91070    0.52350    1.000
    C28      C        0.40730    0.99800    0.47800    1.000
    H20      H        0.38570    0.03680    0.47810    1.000
    N9       N        0.35842    0.65720    0.67880    1.000
    C29      C        0.38980    0.60900    0.67850    1.000
    H21      H        0.39630    0.56290    0.69980    1.000
    C30      C        0.41370    0.62090    0.64930    1.000
    H22      H        0.43590    0.58300    0.65050    1.000
    C31      C        0.40613    0.68670    0.61840    1.000
    C32      C        0.37190    0.73380    0.61660    1.000
    H23      H        0.36430    0.77800    0.59460    1.000
    C33      C        0.34890    0.71660    0.64660    1.000
    H24      H        0.32500    0.74870    0.64430    1.000
    C34      C        0.48181    0.65980    0.55616    1.000
    N10      N        0.47654    0.72730    0.52714    1.000
    C35      C        0.44802    0.78430    0.53264    1.000
    N11      N        0.42480    0.77520    0.56107    1.000
    C36      C        0.43134    0.70220    0.58672    1.000
    N12      N        0.46061    0.64380    0.58603    1.000
    Zn1      Zn       0.42022    0.12770    0.40714    1.000
    I1       I        0.38307    0.23886    0.44160    1.000
    I2       I        0.47671    0.15072    0.37206    1.000
    Zn2      Zn       0.82100    0.13820    0.72090    1.000
    I3       I        0.75667    0.21900    0.69290    1.000
    I4       I        0.86570    0.16870    0.79520    1.000
    Zn3      Zn       0.62190    0.39610    0.56200    1.000
    I5       I        0.60490    0.26450    0.60180    1.000
    I6       I        0.64440    0.40490    0.48840    1.000
    Zn4      Zn       0.82944    0.14250    0.73213    1.000
    I7       I        0.76842    0.23401    0.70818    1.000
    I8       I        0.87405    0.15885    0.80605    1.000
    Zn5      Zn       0.63074    0.40710    0.55930    1.000
    I9       I        0.61375    0.25830    0.59246    1.000
    I10      I        0.65145    0.41230    0.48880    1.000
    Zn6      Zn       0.41330    0.11230    0.40860    1.000
    I11      I        0.37170    0.22790    0.44357    1.000
    I12      I        0.47570    0.15390    0.37970    1.000
    N13      N        0.31437    0.50270    0.72248    1.000
    C37      C        0.28460    0.46860    0.69440    1.000
    H25      H        0.26730    0.50790    0.67580    1.000
    C38      C        0.27784    0.37660    0.69110    1.000
    H26      H        0.25640    0.35390    0.67010    1.000
    C39      C        0.30193    0.31900    0.71797    1.000
    C40      C        0.33350    0.35620    0.74770    1.000
    H27      H        0.35110    0.31870    0.76700    1.000
    C41      C        0.33860    0.44830    0.74840    1.000
    H28      H        0.36030    0.47330    0.76830    1.000
    N14      N        0.16907    0.96580    0.60560    1.000
    C42      C        0.17669    0.05210    0.60017    1.000
    H29      H        0.16140    0.08340    0.57610    1.000
    C43      C        0.20609    0.09840    0.62824    1.000
    H30      H        0.21070    0.16010    0.62350    1.000
    C44      C        0.22848    0.05290    0.66316    1.000
    C45      C        0.22030    0.96270    0.66860    1.000
    H31      H        0.23510    0.92960    0.69230    1.000
    C46      C        0.19084    0.92220    0.63964    1.000
    H32      H        0.18550    0.86060    0.64380    1.000
    N15      N        0.37956    0.94460    0.85882    1.000
    C47      C        0.38600    0.03070    0.85150    1.000
    H33      H        0.40720    0.05990    0.87020    1.000
    C48      C        0.36370    0.07970    0.81840    1.000
    H34      H        0.36860    0.14190    0.81530    1.000
    C49      C        0.33401    0.03700    0.78937    1.000
    C50      C        0.32748    0.94760    0.79636    1.000
    H35      H        0.30720    0.91600    0.77730    1.000
    C51      C        0.35076    0.90420    0.83150    1.000
    H36      H        0.34580    0.84260    0.83620    1.000
    C52      C        0.29557    0.22020    0.71855    1.000
    N16      N        0.26622    0.18560    0.68886    1.000
    C53      C        0.26051    0.09830    0.69414    1.000
    N17      N        0.28101    0.04670    0.72619    1.000
    C54      C        0.31026    0.08850    0.75254    1.000
    N18      N        0.31945    0.17590    0.74974    1.000
    N19      N        0.07937    0.98820    0.55729    1.000
    C55      C        0.06470    0.03520    0.52190    1.000
    H37      H        0.07620    0.02980    0.49670    1.000
    C56      C        0.03320    0.09190    0.52023    1.000
    H38      H        0.02360    0.12560    0.49440    1.000
    C57      C        0.01585    0.09970    0.55565    1.000
    C58      C        0.03330    0.05480    0.59380    1.000
    H39      H        0.02370    0.06220    0.62010    1.000
    C59      C        0.06450    0.00000    0.59250    1.000
    H40      H        0.07600    0.96870    0.61850    1.000
    N20      N        0.93205    0.51750    0.45224    1.000
    C60      C        0.96304    0.46480    0.45289    1.000
    H41      H        0.98140    0.48000    0.43520    1.000
    C61      C        0.96923    0.38850    0.47872    1.000
    H42      H        0.99140    0.35150    0.47840    1.000
    C62      C        0.94315    0.36690    0.50479    1.000
    C63      C        0.91170    0.42300    0.50520    1.000
    H43      H        0.89350    0.41070    0.52350    1.000
    C64      C        0.90730    0.49800    0.47800    1.000
    H44      H        0.88570    0.53680    0.47810    1.000
    N21      N        0.85842    0.15720    0.67880    1.000
    C65      C        0.88980    0.10900    0.67850    1.000
    H45      H        0.89630    0.06290    0.69980    1.000
    C66      C        0.91370    0.12090    0.64930    1.000
    H46      H        0.93590    0.08300    0.65050    1.000
    C67      C        0.90613    0.18670    0.61840    1.000
    C68      C        0.87190    0.23380    0.61660    1.000
    H47      H        0.86430    0.27800    0.59460    1.000
    C69      C        0.84890    0.21660    0.64660    1.000
    H48      H        0.82500    0.24870    0.64430    1.000
    C70      C        0.98181    0.15980    0.55616    1.000
    N22      N        0.97654    0.22730    0.52714    1.000
    C71      C        0.94802    0.28430    0.53264    1.000
    N23      N        0.92480    0.27520    0.56107    1.000
    C72      C        0.93134    0.20220    0.58672    1.000
    N24      N        0.96061    0.14380    0.58603    1.000
    Zn7      Zn       0.92022    0.62770    0.40714    1.000
    I13      I        0.88307    0.73886    0.44160    1.000
    I14      I        0.97671    0.65072    0.37206    1.000
    Zn8      Zn       0.32100    0.63820    0.72090    1.000
    I15      I        0.25667    0.71900    0.69290    1.000
    I16      I        0.36570    0.66870    0.79520    1.000
    Zn9      Zn       0.12190    0.89610    0.56200    1.000
    I17      I        0.10490    0.76450    0.60180    1.000
    I18      I        0.14440    0.90490    0.48840    1.000
    Zn10     Zn       0.32944    0.64250    0.73213    1.000
    I19      I        0.26842    0.73401    0.70818    1.000
    I20      I        0.37405    0.65885    0.80605    1.000
    Zn11     Zn       0.13074    0.90710    0.55930    1.000
    I21      I        0.11375    0.75830    0.59246    1.000
    I22      I        0.15145    0.91230    0.48880    1.000
    Zn12     Zn       0.91330    0.61230    0.40860    1.000
    I23      I        0.87170    0.72790    0.44357    1.000
    I24      I        0.97570    0.65390    0.37970    1.000
    N25      N        0.81437    0.99730    0.22248    1.000
    C73      C        0.78460    0.03140    0.19440    1.000
    H49      H        0.76730    0.99210    0.17580    1.000
    C74      C        0.77784    0.12340    0.19110    1.000
    H50      H        0.75640    0.14610    0.17010    1.000
    C75      C        0.80193    0.18100    0.21797    1.000
    C76      C        0.83350    0.14380    0.24770    1.000
    H51      H        0.85110    0.18130    0.26700    1.000
    C77      C        0.83860    0.05170    0.24840    1.000
    H52      H        0.86030    0.02670    0.26830    1.000
    N26      N        0.66907    0.53420    0.10560    1.000
    C78      C        0.67669    0.44790    0.10017    1.000
    H53      H        0.66140    0.41660    0.07610    1.000
    C79      C        0.70609    0.40160    0.12824    1.000
    H54      H        0.71070    0.33990    0.12350    1.000
    C80      C        0.72848    0.44710    0.16316    1.000
    C81      C        0.72030    0.53730    0.16860    1.000
    H55      H        0.73510    0.57040    0.19230    1.000
    C82      C        0.69084    0.57780    0.13964    1.000
    H56      H        0.68550    0.63940    0.14380    1.000
    N27      N        0.87956    0.55540    0.35882    1.000
    C83      C        0.88600    0.46930    0.35150    1.000
    H57      H        0.90720    0.44010    0.37020    1.000
    C84      C        0.86370    0.42030    0.31840    1.000
    H58      H        0.86860    0.35810    0.31530    1.000
    C85      C        0.83401    0.46300    0.28937    1.000
    C86      C        0.82748    0.55240    0.29636    1.000
    H59      H        0.80720    0.58400    0.27730    1.000
    C87      C        0.85076    0.59580    0.33150    1.000
    H60      H        0.84580    0.65740    0.33620    1.000
    C88      C        0.79557    0.27980    0.21855    1.000
    N28      N        0.76622    0.31440    0.18886    1.000
    C89      C        0.76051    0.40170    0.19414    1.000
    N29      N        0.78101    0.45330    0.22619    1.000
    C90      C        0.81026    0.41150    0.25254    1.000
    N30      N        0.81945    0.32410    0.24974    1.000
    N31      N        0.57937    0.51180    0.05729    1.000
    C91      C        0.56470    0.46480    0.02190    1.000
    H61      H        0.57620    0.47020    0.99670    1.000
    C92      C        0.53320    0.40810    0.02023    1.000
    H62      H        0.52360    0.37440    0.99440    1.000
    C93      C        0.51585    0.40030    0.05565    1.000
    C94      C        0.53330    0.44520    0.09380    1.000
    H63      H        0.52370    0.43780    0.12010    1.000
    C95      C        0.56450    0.50000    0.09250    1.000
    H64      H        0.57600    0.53130    0.11850    1.000
    N32      N        0.43205    0.98250    0.95224    1.000
    C96      C        0.46304    0.03520    0.95289    1.000
    H65      H        0.48140    0.02000    0.93520    1.000
    C97      C        0.46923    0.11150    0.97872    1.000
    H66      H        0.49140    0.14850    0.97840    1.000
    C98      C        0.44315    0.13310    0.00479    1.000
    C99      C        0.41170    0.07700    0.00520    1.000
    H67      H        0.39350    0.08930    0.02350    1.000
    C100     C        0.40730    0.00200    0.97800    1.000
    H68      H        0.38570    0.96320    0.97810    1.000
    N33      N        0.35842    0.34280    0.17880    1.000
    C101     C        0.38980    0.39100    0.17850    1.000
    H69      H        0.39630    0.43710    0.19980    1.000
    C102     C        0.41370    0.37910    0.14930    1.000
    H70      H        0.43590    0.41700    0.15050    1.000
    C103     C        0.40613    0.31330    0.11840    1.000
    C104     C        0.37190    0.26620    0.11660    1.000
    H71      H        0.36430    0.22200    0.09460    1.000
    C105     C        0.34890    0.28340    0.14660    1.000
    H72      H        0.32500    0.25130    0.14430    1.000
    C106     C        0.48181    0.34020    0.05616    1.000
    N34      N        0.47654    0.27270    0.02714    1.000
    C107     C        0.44802    0.21570    0.03264    1.000
    N35      N        0.42480    0.22480    0.06107    1.000
    C108     C        0.43134    0.29780    0.08672    1.000
    N36      N        0.46061    0.35620    0.08603    1.000
    Zn13     Zn       0.42022    0.87230    0.90714    1.000
    I25      I        0.38307    0.76114    0.94160    1.000
    I26      I        0.47671    0.84928    0.87206    1.000
    Zn14     Zn       0.82100    0.86180    0.22090    1.000
    I27      I        0.75667    0.78100    0.19290    1.000
    I28      I        0.86570    0.83130    0.29520    1.000
    Zn15     Zn       0.62190    0.60390    0.06200    1.000
    I29      I        0.60490    0.73550    0.10180    1.000
    I30      I        0.64440    0.59510    0.98840    1.000
    Zn16     Zn       0.82944    0.85750    0.23213    1.000
    I31      I        0.76842    0.76599    0.20818    1.000
    I32      I        0.87405    0.84115    0.30605    1.000
    Zn17     Zn       0.63074    0.59290    0.05930    1.000
    I33      I        0.61375    0.74170    0.09246    1.000
    I34      I        0.65145    0.58770    0.98880    1.000
    Zn18     Zn       0.41330    0.88770    0.90860    1.000
    I35      I        0.37170    0.77210    0.94357    1.000
    I36      I        0.47570    0.84610    0.87970    1.000
    N37      N        0.31437    0.49730    0.22248    1.000
    C109     C        0.28460    0.53140    0.19440    1.000
    H73      H        0.26730    0.49210    0.17580    1.000
    C110     C        0.27784    0.62340    0.19110    1.000
    H74      H        0.25640    0.64610    0.17010    1.000
    C111     C        0.30193    0.68100    0.21797    1.000
    C112     C        0.33350    0.64380    0.24770    1.000
    H75      H        0.35110    0.68130    0.26700    1.000
    C113     C        0.33860    0.55170    0.24840    1.000
    H76      H        0.36030    0.52670    0.26830    1.000
    N38      N        0.16907    0.03420    0.10560    1.000
    C114     C        0.17669    0.94790    0.10017    1.000
    H77      H        0.16140    0.91660    0.07610    1.000
    C115     C        0.20609    0.90160    0.12824    1.000
    H78      H        0.21070    0.83990    0.12350    1.000
    C116     C        0.22848    0.94710    0.16316    1.000
    C117     C        0.22030    0.03730    0.16860    1.000
    H79      H        0.23510    0.07040    0.19230    1.000
    C118     C        0.19084    0.07780    0.13964    1.000
    H80      H        0.18550    0.13940    0.14380    1.000
    N39      N        0.37956    0.05540    0.35882    1.000
    C119     C        0.38600    0.96930    0.35150    1.000
    H81      H        0.40720    0.94010    0.37020    1.000
    C120     C        0.36370    0.92030    0.31840    1.000
    H82      H        0.36860    0.85810    0.31530    1.000
    C121     C        0.33401    0.96300    0.28937    1.000
    C122     C        0.32748    0.05240    0.29636    1.000
    H83      H        0.30720    0.08400    0.27730    1.000
    C123     C        0.35076    0.09580    0.33150    1.000
    H84      H        0.34580    0.15740    0.33620    1.000
    C124     C        0.29557    0.77980    0.21855    1.000
    N40      N        0.26622    0.81440    0.18886    1.000
    C125     C        0.26051    0.90170    0.19414    1.000
    N41      N        0.28101    0.95330    0.22619    1.000
    C126     C        0.31026    0.91150    0.25254    1.000
    N42      N        0.31945    0.82410    0.24974    1.000
    N43      N        0.07937    0.01180    0.05729    1.000
    C127     C        0.06470    0.96480    0.02190    1.000
    H85      H        0.07620    0.97020    0.99670    1.000
    C128     C        0.03320    0.90810    0.02023    1.000
    H86      H        0.02360    0.87440    0.99440    1.000
    C129     C        0.01585    0.90030    0.05565    1.000
    C130     C        0.03330    0.94520    0.09380    1.000
    H87      H        0.02370    0.93780    0.12010    1.000
    C131     C        0.06450    0.00000    0.09250    1.000
    H88      H        0.07600    0.03130    0.11850    1.000
    N44      N        0.93205    0.48250    0.95224    1.000
    C132     C        0.96304    0.53520    0.95289    1.000
    H89      H        0.98140    0.52000    0.93520    1.000
    C133     C        0.96923    0.61150    0.97872    1.000
    H90      H        0.99140    0.64850    0.97840    1.000
    C134     C        0.94315    0.63310    0.00479    1.000
    C135     C        0.91170    0.57700    0.00520    1.000
    H91      H        0.89350    0.58930    0.02350    1.000
    C136     C        0.90730    0.50200    0.97800    1.000
    H92      H        0.88570    0.46320    0.97810    1.000
    N45      N        0.85842    0.84280    0.17880    1.000
    C137     C        0.88980    0.89100    0.17850    1.000
    H93      H        0.89630    0.93710    0.19980    1.000
    C138     C        0.91370    0.87910    0.14930    1.000
    H94      H        0.93590    0.91700    0.15050    1.000
    C139     C        0.90613    0.81330    0.11840    1.000
    C140     C        0.87190    0.76620    0.11660    1.000
    H95      H        0.86430    0.72200    0.09460    1.000
    C141     C        0.84890    0.78340    0.14660    1.000
    H96      H        0.82500    0.75130    0.14430    1.000
    C142     C        0.98181    0.84020    0.05616    1.000
    N46      N        0.97654    0.77270    0.02714    1.000
    C143     C        0.94802    0.71570    0.03264    1.000
    N47      N        0.92480    0.72480    0.06107    1.000
    C144     C        0.93134    0.79780    0.08672    1.000
    N48      N        0.96061    0.85620    0.08603    1.000
    Zn19     Zn       0.92022    0.37230    0.90714    1.000
    I37      I        0.88307    0.26114    0.94160    1.000
    I38      I        0.97671    0.34928    0.87206    1.000
    Zn20     Zn       0.32100    0.36180    0.22090    1.000
    I39      I        0.25667    0.28100    0.19290    1.000
    I40      I        0.36570    0.33130    0.29520    1.000
    Zn21     Zn       0.12190    0.10390    0.06200    1.000
    I41      I        0.10490    0.23550    0.10180    1.000
    I42      I        0.14440    0.09510    0.98840    1.000
    Zn22     Zn       0.32944    0.35750    0.23213    1.000
    I43      I        0.26842    0.26599    0.20818    1.000
    I44      I        0.37405    0.34115    0.30605    1.000
    Zn23     Zn       0.13074    0.09290    0.05930    1.000
    I45      I        0.11375    0.24170    0.09246    1.000
    I46      I        0.15145    0.08770    0.98880    1.000
    Zn24     Zn       0.91330    0.38770    0.90860    1.000
    I47      I        0.87170    0.27210    0.94357    1.000
    I48      I        0.97570    0.34610    0.87970    1.000
    N49      N        0.18563    0.00270    0.77752    1.000
    C145     C        0.21540    0.96860    0.80560    1.000
    H97      H        0.23270    0.00790    0.82420    1.000
    C146     C        0.22216    0.87660    0.80890    1.000
    H98      H        0.24360    0.85390    0.82990    1.000
    C147     C        0.19807    0.81900    0.78203    1.000
    C148     C        0.16650    0.85620    0.75230    1.000
    H99      H        0.14890    0.81870    0.73300    1.000
    C149     C        0.16140    0.94830    0.75160    1.000
    H100     H        0.13970    0.97330    0.73170    1.000
    N50      N        0.33093    0.46580    0.89440    1.000
    C150     C        0.32331    0.55210    0.89983    1.000
    H101     H        0.33860    0.58340    0.92390    1.000
    C151     C        0.29391    0.59840    0.87176    1.000
    H102     H        0.28930    0.66010    0.87650    1.000
    C152     C        0.27152    0.55290    0.83684    1.000
    C153     C        0.27970    0.46270    0.83140    1.000
    H103     H        0.26490    0.42960    0.80770    1.000
    C154     C        0.30916    0.42220    0.86036    1.000
    H104     H        0.31450    0.36060    0.85620    1.000
    N51      N        0.12044    0.44460    0.64118    1.000
    C155     C        0.11400    0.53070    0.64850    1.000
    H105     H        0.09280    0.55990    0.62980    1.000
    C156     C        0.13630    0.57970    0.68160    1.000
    H106     H        0.13140    0.64190    0.68470    1.000
    C157     C        0.16599    0.53700    0.71063    1.000
    C158     C        0.17252    0.44760    0.70364    1.000
    H107     H        0.19280    0.41600    0.72270    1.000
    C159     C        0.14924    0.40420    0.66850    1.000
    H108     H        0.15420    0.34260    0.66380    1.000
    C160     C        0.20443    0.72020    0.78145    1.000
    N52      N        0.23378    0.68560    0.81114    1.000
    C161     C        0.23949    0.59830    0.80586    1.000
    N53      N        0.21899    0.54670    0.77381    1.000
    C162     C        0.18974    0.58850    0.74746    1.000
    N54      N        0.18055    0.67590    0.75026    1.000
    N55      N        0.42063    0.48820    0.94271    1.000
    C163     C        0.43530    0.53520    0.97810    1.000
    H109     H        0.42380    0.52980    0.00330    1.000
    C164     C        0.46680    0.59190    0.97977    1.000
    H110     H        0.47640    0.62560    0.00560    1.000
    C165     C        0.48415    0.59970    0.94435    1.000
    C166     C        0.46670    0.55480    0.90620    1.000
    H111     H        0.47630    0.56220    0.87990    1.000
    C167     C        0.43550    0.50000    0.90750    1.000
    H112     H        0.42400    0.46870    0.88150    1.000
    N56      N        0.56795    0.01750    0.04776    1.000
    C168     C        0.53696    0.96480    0.04711    1.000
    H113     H        0.51860    0.98000    0.06480    1.000
    C169     C        0.53077    0.88850    0.02128    1.000
    H114     H        0.50860    0.85150    0.02160    1.000
    C170     C        0.55685    0.86690    0.99521    1.000
    C171     C        0.58830    0.92300    0.99480    1.000
    H115     H        0.60650    0.91070    0.97650    1.000
    C172     C        0.59270    0.99800    0.02200    1.000
    H116     H        0.61430    0.03680    0.02190    1.000
    N57      N        0.64158    0.65720    0.82120    1.000
    C173     C        0.61020    0.60900    0.82150    1.000
    H117     H        0.60370    0.56290    0.80020    1.000
    C174     C        0.58630    0.62090    0.85070    1.000
    H118     H        0.56410    0.58300    0.84950    1.000
    C175     C        0.59387    0.68670    0.88160    1.000
    C176     C        0.62810    0.73380    0.88340    1.000
    H119     H        0.63570    0.77800    0.90540    1.000
    C177     C        0.65110    0.71660    0.85340    1.000
    H120     H        0.67500    0.74870    0.85570    1.000
    C178     C        0.51819    0.65980    0.94384    1.000
    N58      N        0.52346    0.72730    0.97286    1.000
    C179     C        0.55198    0.78430    0.96736    1.000
    N59      N        0.57520    0.77520    0.93893    1.000
    C180     C        0.56866    0.70220    0.91328    1.000
    N60      N        0.53939    0.64380    0.91397    1.000
    Zn25     Zn       0.57978    0.12770    0.09286    1.000
    I49      I        0.61693    0.23886    0.05840    1.000
    I50      I        0.52329    0.15072    0.12794    1.000
    Zn26     Zn       0.17900    0.13820    0.77910    1.000
    I51      I        0.24333    0.21900    0.80710    1.000
    I52      I        0.13430    0.16870    0.70480    1.000
    Zn27     Zn       0.37810    0.39610    0.93800    1.000
    I53      I        0.39510    0.26450    0.89820    1.000
    I54      I        0.35560    0.40490    0.01160    1.000
    Zn28     Zn       0.17056    0.14250    0.76787    1.000
    I55      I        0.23158    0.23401    0.79182    1.000
    I56      I        0.12595    0.15885    0.69395    1.000
    Zn29     Zn       0.36926    0.40710    0.94070    1.000
    I57      I        0.38625    0.25830    0.90754    1.000
    I58      I        0.34855    0.41230    0.01120    1.000
    Zn30     Zn       0.58670    0.11230    0.09140    1.000
    I59      I        0.62830    0.22790    0.05643    1.000
    I60      I        0.52430    0.15390    0.12030    1.000
    N61      N        0.68563    0.50270    0.77752    1.000
    C181     C        0.71540    0.46860    0.80560    1.000
    H121     H        0.73270    0.50790    0.82420    1.000
    C182     C        0.72216    0.37660    0.80890    1.000
    H122     H        0.74360    0.35390    0.82990    1.000
    C183     C        0.69807    0.31900    0.78203    1.000
    C184     C        0.66650    0.35620    0.75230    1.000
    H123     H        0.64890    0.31870    0.73300    1.000
    C185     C        0.66140    0.44830    0.75160    1.000
    H124     H        0.63970    0.47330    0.73170    1.000
    N62      N        0.83093    0.96580    0.89440    1.000
    C186     C        0.82331    0.05210    0.89983    1.000
    H125     H        0.83860    0.08340    0.92390    1.000
    C187     C        0.79391    0.09840    0.87176    1.000
    H126     H        0.78930    0.16010    0.87650    1.000
    C188     C        0.77152    0.05290    0.83684    1.000
    C189     C        0.77970    0.96270    0.83140    1.000
    H127     H        0.76490    0.92960    0.80770    1.000
    C190     C        0.80916    0.92220    0.86036    1.000
    H128     H        0.81450    0.86060    0.85620    1.000
    N63      N        0.62044    0.94460    0.64118    1.000
    C191     C        0.61400    0.03070    0.64850    1.000
    H129     H        0.59280    0.05990    0.62980    1.000
    C192     C        0.63630    0.07970    0.68160    1.000
    H130     H        0.63140    0.14190    0.68470    1.000
    C193     C        0.66599    0.03700    0.71063    1.000
    C194     C        0.67252    0.94760    0.70364    1.000
    H131     H        0.69280    0.91600    0.72270    1.000
    C195     C        0.64924    0.90420    0.66850    1.000
    H132     H        0.65420    0.84260    0.66380    1.000
    C196     C        0.70443    0.22020    0.78145    1.000
    N64      N        0.73378    0.18560    0.81114    1.000
    C197     C        0.73949    0.09830    0.80586    1.000
    N65      N        0.71899    0.04670    0.77381    1.000
    C198     C        0.68974    0.08850    0.74746    1.000
    N66      N        0.68055    0.17590    0.75026    1.000
    N67      N        0.92063    0.98820    0.94271    1.000
    C199     C        0.93530    0.03520    0.97810    1.000
    H133     H        0.92380    0.02980    0.00330    1.000
    C200     C        0.96680    0.09190    0.97977    1.000
    H134     H        0.97640    0.12560    0.00560    1.000
    C201     C        0.98415    0.09970    0.94435    1.000
    C202     C        0.96670    0.05480    0.90620    1.000
    H135     H        0.97630    0.06220    0.87990    1.000
    C203     C        0.93550    0.00000    0.90750    1.000
    H136     H        0.92400    0.96870    0.88150    1.000
    N68      N        0.06795    0.51750    0.04776    1.000
    C204     C        0.03696    0.46480    0.04711    1.000
    H137     H        0.01860    0.48000    0.06480    1.000
    C205     C        0.03077    0.38850    0.02128    1.000
    H138     H        0.00860    0.35150    0.02160    1.000
    C206     C        0.05685    0.36690    0.99521    1.000
    C207     C        0.08830    0.42300    0.99480    1.000
    H139     H        0.10650    0.41070    0.97650    1.000
    C208     C        0.09270    0.49800    0.02200    1.000
    H140     H        0.11430    0.53680    0.02190    1.000
    N69      N        0.14158    0.15720    0.82120    1.000
    C209     C        0.11020    0.10900    0.82150    1.000
    H141     H        0.10370    0.06290    0.80020    1.000
    C210     C        0.08630    0.12090    0.85070    1.000
    H142     H        0.06410    0.08300    0.84950    1.000
    C211     C        0.09387    0.18670    0.88160    1.000
    C212     C        0.12810    0.23380    0.88340    1.000
    H143     H        0.13570    0.27800    0.90540    1.000
    C213     C        0.15110    0.21660    0.85340    1.000
    H144     H        0.17500    0.24870    0.85570    1.000
    C214     C        0.01819    0.15980    0.94384    1.000
    N70      N        0.02346    0.22730    0.97286    1.000
    C215     C        0.05198    0.28430    0.96736    1.000
    N71      N        0.07520    0.27520    0.93893    1.000
    C216     C        0.06866    0.20220    0.91328    1.000
    N72      N        0.03939    0.14380    0.91397    1.000
    Zn31     Zn       0.07978    0.62770    0.09286    1.000
    I61      I        0.11693    0.73886    0.05840    1.000
    I62      I        0.02329    0.65072    0.12794    1.000
    Zn32     Zn       0.67900    0.63820    0.77910    1.000
    I63      I        0.74333    0.71900    0.80710    1.000
    I64      I        0.63430    0.66870    0.70480    1.000
    Zn33     Zn       0.87810    0.89610    0.93800    1.000
    I65      I        0.89510    0.76450    0.89820    1.000
    I66      I        0.85560    0.90490    0.01160    1.000
    Zn34     Zn       0.67056    0.64250    0.76787    1.000
    I67      I        0.73158    0.73401    0.79182    1.000
    I68      I        0.62595    0.65885    0.69395    1.000
    Zn35     Zn       0.86926    0.90710    0.94070    1.000
    I69      I        0.88625    0.75830    0.90754    1.000
    I70      I        0.84855    0.91230    0.01120    1.000
    Zn36     Zn       0.08670    0.61230    0.09140    1.000
    I71      I        0.12830    0.72790    0.05643    1.000
    I72      I        0.02430    0.65390    0.12030    1.000
    N73      N        0.18563    0.99730    0.27752    1.000
    C217     C        0.21540    0.03140    0.30560    1.000
    H145     H        0.23270    0.99210    0.32420    1.000
    C218     C        0.22216    0.12340    0.30890    1.000
    H146     H        0.24360    0.14610    0.32990    1.000
    C219     C        0.19807    0.18100    0.28203    1.000
    C220     C        0.16650    0.14380    0.25230    1.000
    H147     H        0.14890    0.18130    0.23300    1.000
    C221     C        0.16140    0.05170    0.25160    1.000
    H148     H        0.13970    0.02670    0.23170    1.000
    N74      N        0.33093    0.53420    0.39440    1.000
    C222     C        0.32331    0.44790    0.39983    1.000
    H149     H        0.33860    0.41660    0.42390    1.000
    C223     C        0.29391    0.40160    0.37176    1.000
    H150     H        0.28930    0.33990    0.37650    1.000
    C224     C        0.27152    0.44710    0.33684    1.000
    C225     C        0.27970    0.53730    0.33140    1.000
    H151     H        0.26490    0.57040    0.30770    1.000
    C226     C        0.30916    0.57780    0.36036    1.000
    H152     H        0.31450    0.63940    0.35620    1.000
    N75      N        0.12044    0.55540    0.14118    1.000
    C227     C        0.11400    0.46930    0.14850    1.000
    H153     H        0.09280    0.44010    0.12980    1.000
    C228     C        0.13630    0.42030    0.18160    1.000
    H154     H        0.13140    0.35810    0.18470    1.000
    C229     C        0.16599    0.46300    0.21063    1.000
    C230     C        0.17252    0.55240    0.20364    1.000
    H155     H        0.19280    0.58400    0.22270    1.000
    C231     C        0.14924    0.59580    0.16850    1.000
    H156     H        0.15420    0.65740    0.16380    1.000
    C232     C        0.20443    0.27980    0.28145    1.000
    N76      N        0.23378    0.31440    0.31114    1.000
    C233     C        0.23949    0.40170    0.30586    1.000
    N77      N        0.21899    0.45330    0.27381    1.000
    C234     C        0.18974    0.41150    0.24746    1.000
    N78      N        0.18055    0.32410    0.25026    1.000
    N79      N        0.42063    0.51180    0.44271    1.000
    C235     C        0.43530    0.46480    0.47810    1.000
    H157     H        0.42380    0.47020    0.50330    1.000
    C236     C        0.46680    0.40810    0.47977    1.000
    H158     H        0.47640    0.37440    0.50560    1.000
    C237     C        0.48415    0.40030    0.44435    1.000
    C238     C        0.46670    0.44520    0.40620    1.000
    H159     H        0.47630    0.43780    0.37990    1.000
    C239     C        0.43550    0.50000    0.40750    1.000
    H160     H        0.42400    0.53130    0.38150    1.000
    N80      N        0.56795    0.98250    0.54776    1.000
    C240     C        0.53696    0.03520    0.54711    1.000
    H161     H        0.51860    0.02000    0.56480    1.000
    C241     C        0.53077    0.11150    0.52128    1.000
    H162     H        0.50860    0.14850    0.52160    1.000
    C242     C        0.55685    0.13310    0.49521    1.000
    C243     C        0.58830    0.07700    0.49480    1.000
    H163     H        0.60650    0.08930    0.47650    1.000
    C244     C        0.59270    0.00200    0.52200    1.000
    H164     H        0.61430    0.96320    0.52190    1.000
    N81      N        0.64158    0.34280    0.32120    1.000
    C245     C        0.61020    0.39100    0.32150    1.000
    H165     H        0.60370    0.43710    0.30020    1.000
    C246     C        0.58630    0.37910    0.35070    1.000
    H166     H        0.56410    0.41700    0.34950    1.000
    C247     C        0.59387    0.31330    0.38160    1.000
    C248     C        0.62810    0.26620    0.38340    1.000
    H167     H        0.63570    0.22200    0.40540    1.000
    C249     C        0.65110    0.28340    0.35340    1.000
    H168     H        0.67500    0.25130    0.35570    1.000
    C250     C        0.51819    0.34020    0.44384    1.000
    N82      N        0.52346    0.27270    0.47286    1.000
    C251     C        0.55198    0.21570    0.46736    1.000
    N83      N        0.57520    0.22480    0.43893    1.000
    C252     C        0.56866    0.29780    0.41328    1.000
    N84      N        0.53939    0.35620    0.41397    1.000
    Zn37     Zn       0.57978    0.87230    0.59286    1.000
    I73      I        0.61693    0.76114    0.55840    1.000
    I74      I        0.52329    0.84928    0.62794    1.000
    Zn38     Zn       0.17900    0.86180    0.27910    1.000
    I75      I        0.24333    0.78100    0.30710    1.000
    I76      I        0.13430    0.83130    0.20480    1.000
    Zn39     Zn       0.37810    0.60390    0.43800    1.000
    I77      I        0.39510    0.73550    0.39820    1.000
    I78      I        0.35560    0.59510    0.51160    1.000
    Zn40     Zn       0.17056    0.85750    0.26787    1.000
    I79      I        0.23158    0.76599    0.29182    1.000
    I80      I        0.12595    0.84115    0.19395    1.000
    Zn41     Zn       0.36926    0.59290    0.44070    1.000
    I81      I        0.38625    0.74170    0.40754    1.000
    I82      I        0.34855    0.58770    0.51120    1.000
    Zn42     Zn       0.58670    0.88770    0.59140    1.000
    I83      I        0.62830    0.77210    0.55643    1.000
    I84      I        0.52430    0.84610    0.62030    1.000
    N85      N        0.68563    0.49730    0.27752    1.000
    C253     C        0.71540    0.53140    0.30560    1.000
    H169     H        0.73270    0.49210    0.32420    1.000
    C254     C        0.72216    0.62340    0.30890    1.000
    H170     H        0.74360    0.64610    0.32990    1.000
    C255     C        0.69807    0.68100    0.28203    1.000
    C256     C        0.66650    0.64380    0.25230    1.000
    H171     H        0.64890    0.68130    0.23300    1.000
    C257     C        0.66140    0.55170    0.25160    1.000
    H172     H        0.63970    0.52670    0.23170    1.000
    N86      N        0.83093    0.03420    0.39440    1.000
    C258     C        0.82331    0.94790    0.39983    1.000
    H173     H        0.83860    0.91660    0.42390    1.000
    C259     C        0.79391    0.90160    0.37176    1.000
    H174     H        0.78930    0.83990    0.37650    1.000
    C260     C        0.77152    0.94710    0.33684    1.000
    C261     C        0.77970    0.03730    0.33140    1.000
    H175     H        0.76490    0.07040    0.30770    1.000
    C262     C        0.80916    0.07780    0.36036    1.000
    H176     H        0.81450    0.13940    0.35620    1.000
    N87      N        0.62044    0.05540    0.14118    1.000
    C263     C        0.61400    0.96930    0.14850    1.000
    H177     H        0.59280    0.94010    0.12980    1.000
    C264     C        0.63630    0.92030    0.18160    1.000
    H178     H        0.63140    0.85810    0.18470    1.000
    C265     C        0.66599    0.96300    0.21063    1.000
    C266     C        0.67252    0.05240    0.20364    1.000
    H179     H        0.69280    0.08400    0.22270    1.000
    C267     C        0.64924    0.09580    0.16850    1.000
    H180     H        0.65420    0.15740    0.16380    1.000
    C268     C        0.70443    0.77980    0.28145    1.000
    N88      N        0.73378    0.81440    0.31114    1.000
    C269     C        0.73949    0.90170    0.30586    1.000
    N89      N        0.71899    0.95330    0.27381    1.000
    C270     C        0.68974    0.91150    0.24746    1.000
    N90      N        0.68055    0.82410    0.25026    1.000
    N91      N        0.92063    0.01180    0.44271    1.000
    C271     C        0.93530    0.96480    0.47810    1.000
    H181     H        0.92380    0.97020    0.50330    1.000
    C272     C        0.96680    0.90810    0.47977    1.000
    H182     H        0.97640    0.87440    0.50560    1.000
    C273     C        0.98415    0.90030    0.44435    1.000
    C274     C        0.96670    0.94520    0.40620    1.000
    H183     H        0.97630    0.93780    0.37990    1.000
    C275     C        0.93550    0.00000    0.40750    1.000
    H184     H        0.92400    0.03130    0.38150    1.000
    N92      N        0.06795    0.48250    0.54776    1.000
    C276     C        0.03696    0.53520    0.54711    1.000
    H185     H        0.01860    0.52000    0.56480    1.000
    C277     C        0.03077    0.61150    0.52128    1.000
    H186     H        0.00860    0.64850    0.52160    1.000
    C278     C        0.05685    0.63310    0.49521    1.000
    C279     C        0.08830    0.57700    0.49480    1.000
    H187     H        0.10650    0.58930    0.47650    1.000
    C280     C        0.09270    0.50200    0.52200    1.000
    H188     H        0.11430    0.46320    0.52190    1.000
    N93      N        0.14158    0.84280    0.32120    1.000
    C281     C        0.11020    0.89100    0.32150    1.000
    H189     H        0.10370    0.93710    0.30020    1.000
    C282     C        0.08630    0.87910    0.35070    1.000
    H190     H        0.06410    0.91700    0.34950    1.000
    C283     C        0.09387    0.81330    0.38160    1.000
    C284     C        0.12810    0.76620    0.38340    1.000
    H191     H        0.13570    0.72200    0.40540    1.000
    C285     C        0.15110    0.78340    0.35340    1.000
    H192     H        0.17500    0.75130    0.35570    1.000
    C286     C        0.01819    0.84020    0.44384    1.000
    N94      N        0.02346    0.77270    0.47286    1.000
    C287     C        0.05198    0.71570    0.46736    1.000
    N95      N        0.07520    0.72480    0.43893    1.000
    C288     C        0.06866    0.79780    0.41328    1.000
    N96      N        0.03939    0.85620    0.41397    1.000
    Zn43     Zn       0.07978    0.37230    0.59286    1.000
    I85      I        0.11693    0.26114    0.55840    1.000
    I86      I        0.02329    0.34928    0.62794    1.000
    Zn44     Zn       0.67900    0.36180    0.27910    1.000
    I87      I        0.74333    0.28100    0.30710    1.000
    I88      I        0.63430    0.33130    0.20480    1.000
    Zn45     Zn       0.87810    0.10390    0.43800    1.000
    I89      I        0.89510    0.23550    0.39820    1.000
    I90      I        0.85560    0.09510    0.51160    1.000
    Zn46     Zn       0.67056    0.35750    0.26787    1.000
    I91      I        0.73158    0.26599    0.29182    1.000
    I92      I        0.62595    0.34115    0.19395    1.000
    Zn47     Zn       0.86926    0.09290    0.44070    1.000
    I93      I        0.88625    0.24170    0.40754    1.000
    I94      I        0.84855    0.08770    0.51120    1.000
    Zn48     Zn       0.08670    0.38770    0.59140    1.000
    I95      I        0.12830    0.27210    0.55643    1.000
    I96      I        0.02430    0.34610    0.62030    1.000
