# CIF file generated by openbabel 3.1.0, see https://openbabel.org
data_I
_chemical_name_common 'image0'
_cell_length_a 23.9651
_cell_length_b 29.2842
_cell_length_c 17.3545
_cell_angle_alpha 90
_cell_angle_beta 96.301
_cell_angle_gamma 90
_space_group_name_H-M_alt 'P 1'
_space_group_name_Hall 'P 1'
loop_
    _symmetry_equiv_pos_as_xyz
    x,y,z
loop_
    _atom_site_label
    _atom_site_type_symbol
    _atom_site_fract_x
    _atom_site_fract_y
    _atom_site_fract_z
    _atom_site_occupancy
    Zr1      Zr       0.16605    0.20733    0.53357    1.000
    Zr2      Zr       0.29804    0.23111    0.62936    1.000
    Zr3      Zr       0.21407    0.32190    0.55258    1.000
    O1       O        0.29260    0.29220    0.56590    1.000
    O2       O        0.13900    0.33557    0.60340    1.000
    O3       O        0.23930    0.33962    0.67750    1.000
    O4       O        0.29090    0.27799    0.72560    1.000
    O5       O        0.24940    0.32380    0.43790    1.000
    O6       O        0.20700    0.25760    0.61990    1.000
    O7       O        0.15460    0.27550    0.47060    1.000
    O8       O        0.33260    0.32484    0.35030    1.000
    O9       O        0.24550    0.30821    0.28680    1.000
    O10      O        0.84610    0.66731    0.64720    1.000
    O11      O        0.26010    0.61340    0.05070    1.000
    O12      O        0.83870    0.63239    0.53030    1.000
    O13      O        0.34010    0.63250    0.99010    1.000
    O14      O        0.58840    0.30420    0.96270    1.000
    C1       C        0.30090    0.41180    0.87780    1.000
    C2       C        0.28700    0.34250    0.80310    1.000
    C3       C        0.29470    0.32610    0.29310    1.000
    C4       C        0.36020    0.41020    0.01130    1.000
    C5       C        0.31030    0.34980    0.22160    1.000
    C6       C        0.26960    0.31840    0.72790    1.000
    C7       C        0.34760    0.46160    0.01650    1.000
    C8       C        0.34120    0.38910    0.08560    1.000
    C9       C        0.30470    0.60440    0.02090    1.000
    C10      C        0.32010    0.55500    0.02050    1.000
    C11      C        0.27910    0.38910    0.80980    1.000
    C12      C        0.32910    0.38740    0.93890    1.000
    C13      C        0.31350    0.31780    0.86550    1.000
    C14      C        0.33450    0.34020    0.93200    1.000
    C15      C        0.42200    0.39980    0.00120    1.000
    C16      C        0.29200    0.36460    0.08450    1.000
    C17      C        0.37170    0.39760    0.15660    1.000
    C18      C        0.29410    0.47520    0.02710    1.000
    C19      C        0.27980    0.52230    0.02940    1.000
    C20      C        0.35710    0.37790    0.22350    1.000
    C21      C        0.27550    0.34610    0.15200    1.000
    C22      C        0.44190    0.41500    0.93380    1.000
    C23      C        0.37320    0.54080    0.00890    1.000
    C24      C        0.38630    0.49410    0.00610    1.000
    C25      C        0.51820    0.36410    0.95660    1.000
    C26      C        0.44970    0.36520    0.04130    1.000
    C27      C        0.49890    0.34900    0.01950    1.000
    C28      C        0.56850    0.33830    0.92570    1.000
    C29      C        0.49030    0.39840    0.90790    1.000
    C30      C        0.95680    0.52670    0.70720    1.000
    C31      C        0.02560    0.46040    0.69500    1.000
    C32      C        0.00890    0.39670    0.60640    1.000
    C33      C        0.10320    0.41560    0.66080    1.000
    C34      C        0.06700    0.38720    0.61490    1.000
    C35      C        0.91630    0.56720    0.59230    1.000
    C36      C        0.98910    0.43310    0.64600    1.000
    C37      C        0.95100    0.53260    0.62840    1.000
    C38      C        0.92690    0.55530    0.75290    1.000
    C39      C        0.08290    0.45230    0.70090    1.000
    C40      C        0.88880    0.59610    0.63870    1.000
    C41      C        0.85420    0.63460    0.60210    1.000
    C42      C        0.89370    0.59040    0.71910    1.000
    C43      C        0.08870    0.34610    0.57900    1.000
    O15      O        0.05650    0.32220    0.53380    1.000
    O16      O        0.58840    0.35140    0.86160    1.000
    O17      O        0.17210    0.27170    0.48680    1.000
    O18      O        0.30880    0.30140    0.58580    1.000
    O19      O        0.25040    0.30490    0.45480    1.000
    O20      O        0.21870    0.25530    0.59250    1.000
    Zr4      Zr       0.66605    0.70733    0.53357    1.000
    Zr5      Zr       0.79804    0.73111    0.62936    1.000
    Zr6      Zr       0.71407    0.82190    0.55258    1.000
    O21      O        0.79260    0.79220    0.56590    1.000
    O22      O        0.63900    0.83557    0.60340    1.000
    O23      O        0.73930    0.83962    0.67750    1.000
    O24      O        0.79090    0.77799    0.72560    1.000
    O25      O        0.74940    0.82380    0.43790    1.000
    O26      O        0.70700    0.75760    0.61990    1.000
    O27      O        0.65460    0.77550    0.47060    1.000
    O28      O        0.83260    0.82484    0.35030    1.000
    O29      O        0.74550    0.80821    0.28680    1.000
    O30      O        0.34610    0.16731    0.64720    1.000
    O31      O        0.76010    0.11340    0.05070    1.000
    O32      O        0.33870    0.13239    0.53030    1.000
    O33      O        0.84010    0.13250    0.99010    1.000
    O34      O        0.08840    0.80420    0.96270    1.000
    C44      C        0.80090    0.91180    0.87780    1.000
    C45      C        0.78700    0.84250    0.80310    1.000
    C46      C        0.79470    0.82610    0.29310    1.000
    C47      C        0.86020    0.91020    0.01130    1.000
    C48      C        0.81030    0.84980    0.22160    1.000
    C49      C        0.76960    0.81840    0.72790    1.000
    C50      C        0.84760    0.96160    0.01650    1.000
    C51      C        0.84120    0.88910    0.08560    1.000
    C52      C        0.80470    0.10440    0.02090    1.000
    C53      C        0.82010    0.05500    0.02050    1.000
    C54      C        0.77910    0.88910    0.80980    1.000
    C55      C        0.82910    0.88740    0.93890    1.000
    C56      C        0.81350    0.81780    0.86550    1.000
    C57      C        0.83450    0.84020    0.93200    1.000
    C58      C        0.92200    0.89980    0.00120    1.000
    C59      C        0.79200    0.86460    0.08450    1.000
    C60      C        0.87170    0.89760    0.15660    1.000
    C61      C        0.79410    0.97520    0.02710    1.000
    C62      C        0.77980    0.02230    0.02940    1.000
    C63      C        0.85710    0.87790    0.22350    1.000
    C64      C        0.77550    0.84610    0.15200    1.000
    C65      C        0.94190    0.91500    0.93380    1.000
    C66      C        0.87320    0.04080    0.00890    1.000
    C67      C        0.88630    0.99410    0.00610    1.000
    C68      C        0.01820    0.86410    0.95660    1.000
    C69      C        0.94970    0.86520    0.04130    1.000
    C70      C        0.99890    0.84900    0.01950    1.000
    C71      C        0.06850    0.83830    0.92570    1.000
    C72      C        0.99030    0.89840    0.90790    1.000
    C73      C        0.45680    0.02670    0.70720    1.000
    C74      C        0.52560    0.96040    0.69500    1.000
    C75      C        0.50890    0.89670    0.60640    1.000
    C76      C        0.60320    0.91560    0.66080    1.000
    C77      C        0.56700    0.88720    0.61490    1.000
    C78      C        0.41630    0.06720    0.59230    1.000
    C79      C        0.48910    0.93310    0.64600    1.000
    C80      C        0.45100    0.03260    0.62840    1.000
    C81      C        0.42690    0.05530    0.75290    1.000
    C82      C        0.58290    0.95230    0.70090    1.000
    C83      C        0.38880    0.09610    0.63870    1.000
    C84      C        0.35420    0.13460    0.60210    1.000
    C85      C        0.39370    0.09040    0.71910    1.000
    C86      C        0.58870    0.84610    0.57900    1.000
    O35      O        0.55650    0.82220    0.53380    1.000
    O36      O        0.08840    0.85140    0.86160    1.000
    O37      O        0.67210    0.77170    0.48680    1.000
    O38      O        0.80880    0.80140    0.58580    1.000
    O39      O        0.75040    0.80490    0.45480    1.000
    O40      O        0.71870    0.75530    0.59250    1.000
    Zr7      Zr       0.83395    0.20733    0.96643    1.000
    Zr8      Zr       0.70196    0.23111    0.87064    1.000
    Zr9      Zr       0.78593    0.32190    0.94742    1.000
    O41      O        0.70740    0.29220    0.93410    1.000
    O42      O        0.86100    0.33557    0.89660    1.000
    O43      O        0.76070    0.33962    0.82250    1.000
    O44      O        0.70910    0.27799    0.77440    1.000
    O45      O        0.75060    0.32380    0.06210    1.000
    O46      O        0.79300    0.25760    0.88010    1.000
    O47      O        0.84540    0.27550    0.02940    1.000
    O48      O        0.66740    0.32484    0.14970    1.000
    O49      O        0.75450    0.30821    0.21320    1.000
    O50      O        0.15390    0.66731    0.85280    1.000
    O51      O        0.73990    0.61340    0.44930    1.000
    O52      O        0.16130    0.63239    0.96970    1.000
    O53      O        0.65990    0.63250    0.50990    1.000
    O54      O        0.41160    0.30420    0.53730    1.000
    C87      C        0.69910    0.41180    0.62220    1.000
    C88      C        0.71300    0.34250    0.69690    1.000
    C89      C        0.70530    0.32610    0.20690    1.000
    C90      C        0.63980    0.41020    0.48870    1.000
    C91      C        0.68970    0.34980    0.27840    1.000
    C92      C        0.73040    0.31840    0.77210    1.000
    C93      C        0.65240    0.46160    0.48350    1.000
    C94      C        0.65880    0.38910    0.41440    1.000
    C95      C        0.69530    0.60440    0.47910    1.000
    C96      C        0.67990    0.55500    0.47950    1.000
    C97      C        0.72090    0.38910    0.69020    1.000
    C98      C        0.67090    0.38740    0.56110    1.000
    C99      C        0.68650    0.31780    0.63450    1.000
    C100     C        0.66550    0.34020    0.56800    1.000
    C101     C        0.57800    0.39980    0.49880    1.000
    C102     C        0.70800    0.36460    0.41550    1.000
    C103     C        0.62830    0.39760    0.34340    1.000
    C104     C        0.70590    0.47520    0.47290    1.000
    C105     C        0.72020    0.52230    0.47060    1.000
    C106     C        0.64290    0.37790    0.27650    1.000
    C107     C        0.72450    0.34610    0.34800    1.000
    C108     C        0.55810    0.41500    0.56620    1.000
    C109     C        0.62680    0.54080    0.49110    1.000
    C110     C        0.61370    0.49410    0.49390    1.000
    C111     C        0.48180    0.36410    0.54340    1.000
    C112     C        0.55030    0.36520    0.45870    1.000
    C113     C        0.50110    0.34900    0.48050    1.000
    C114     C        0.43150    0.33830    0.57430    1.000
    C115     C        0.50970    0.39840    0.59210    1.000
    C116     C        0.04320    0.52670    0.79280    1.000
    C117     C        0.97440    0.46040    0.80500    1.000
    C118     C        0.99110    0.39670    0.89360    1.000
    C119     C        0.89680    0.41560    0.83920    1.000
    C120     C        0.93300    0.38720    0.88510    1.000
    C121     C        0.08370    0.56720    0.90770    1.000
    C122     C        0.01090    0.43310    0.85400    1.000
    C123     C        0.04900    0.53260    0.87160    1.000
    C124     C        0.07310    0.55530    0.74710    1.000
    C125     C        0.91710    0.45230    0.79910    1.000
    C126     C        0.11120    0.59610    0.86130    1.000
    C127     C        0.14580    0.63460    0.89790    1.000
    C128     C        0.10630    0.59040    0.78090    1.000
    C129     C        0.91130    0.34610    0.92100    1.000
    O55      O        0.94350    0.32220    0.96620    1.000
    O56      O        0.41160    0.35140    0.63840    1.000
    O57      O        0.82790    0.27170    0.01320    1.000
    O58      O        0.69120    0.30140    0.91420    1.000
    O59      O        0.74960    0.30490    0.04520    1.000
    O60      O        0.78130    0.25530    0.90750    1.000
    Zr10     Zr       0.33395    0.70733    0.96643    1.000
    Zr11     Zr       0.20196    0.73111    0.87064    1.000
    Zr12     Zr       0.28593    0.82190    0.94742    1.000
    O61      O        0.20740    0.79220    0.93410    1.000
    O62      O        0.36100    0.83557    0.89660    1.000
    O63      O        0.26070    0.83962    0.82250    1.000
    O64      O        0.20910    0.77799    0.77440    1.000
    O65      O        0.25060    0.82380    0.06210    1.000
    O66      O        0.29300    0.75760    0.88010    1.000
    O67      O        0.34540    0.77550    0.02940    1.000
    O68      O        0.16740    0.82484    0.14970    1.000
    O69      O        0.25450    0.80821    0.21320    1.000
    O70      O        0.65390    0.16731    0.85280    1.000
    O71      O        0.23990    0.11340    0.44930    1.000
    O72      O        0.66130    0.13239    0.96970    1.000
    O73      O        0.15990    0.13250    0.50990    1.000
    O74      O        0.91160    0.80420    0.53730    1.000
    C130     C        0.19910    0.91180    0.62220    1.000
    C131     C        0.21300    0.84250    0.69690    1.000
    C132     C        0.20530    0.82610    0.20690    1.000
    C133     C        0.13980    0.91020    0.48870    1.000
    C134     C        0.18970    0.84980    0.27840    1.000
    C135     C        0.23040    0.81840    0.77210    1.000
    C136     C        0.15240    0.96160    0.48350    1.000
    C137     C        0.15880    0.88910    0.41440    1.000
    C138     C        0.19530    0.10440    0.47910    1.000
    C139     C        0.17990    0.05500    0.47950    1.000
    C140     C        0.22090    0.88910    0.69020    1.000
    C141     C        0.17090    0.88740    0.56110    1.000
    C142     C        0.18650    0.81780    0.63450    1.000
    C143     C        0.16550    0.84020    0.56800    1.000
    C144     C        0.07800    0.89980    0.49880    1.000
    C145     C        0.20800    0.86460    0.41550    1.000
    C146     C        0.12830    0.89760    0.34340    1.000
    C147     C        0.20590    0.97520    0.47290    1.000
    C148     C        0.22020    0.02230    0.47060    1.000
    C149     C        0.14290    0.87790    0.27650    1.000
    C150     C        0.22450    0.84610    0.34800    1.000
    C151     C        0.05810    0.91500    0.56620    1.000
    C152     C        0.12680    0.04080    0.49110    1.000
    C153     C        0.11370    0.99410    0.49390    1.000
    C154     C        0.98180    0.86410    0.54340    1.000
    C155     C        0.05030    0.86520    0.45870    1.000
    C156     C        0.00110    0.84900    0.48050    1.000
    C157     C        0.93150    0.83830    0.57430    1.000
    C158     C        0.00970    0.89840    0.59210    1.000
    C159     C        0.54320    0.02670    0.79280    1.000
    C160     C        0.47440    0.96040    0.80500    1.000
    C161     C        0.49110    0.89670    0.89360    1.000
    C162     C        0.39680    0.91560    0.83920    1.000
    C163     C        0.43300    0.88720    0.88510    1.000
    C164     C        0.58370    0.06720    0.90770    1.000
    C165     C        0.51090    0.93310    0.85400    1.000
    C166     C        0.54900    0.03260    0.87160    1.000
    C167     C        0.57310    0.05530    0.74710    1.000
    C168     C        0.41710    0.95230    0.79910    1.000
    C169     C        0.61120    0.09610    0.86130    1.000
    C170     C        0.64580    0.13460    0.89790    1.000
    C171     C        0.60630    0.09040    0.78090    1.000
    C172     C        0.41130    0.84610    0.92100    1.000
    O75      O        0.44350    0.82220    0.96620    1.000
    O76      O        0.91160    0.85140    0.63840    1.000
    O77      O        0.32790    0.77170    0.01320    1.000
    O78      O        0.19120    0.80140    0.91420    1.000
    O79      O        0.24960    0.80490    0.04520    1.000
    O80      O        0.28130    0.75530    0.90750    1.000
    Zr13     Zr       0.83395    0.79267    0.46643    1.000
    Zr14     Zr       0.70196    0.76889    0.37064    1.000
    Zr15     Zr       0.78593    0.67810    0.44742    1.000
    O81      O        0.70740    0.70780    0.43410    1.000
    O82      O        0.86100    0.66443    0.39660    1.000
    O83      O        0.76070    0.66038    0.32250    1.000
    O84      O        0.70910    0.72201    0.27440    1.000
    O85      O        0.75060    0.67620    0.56210    1.000
    O86      O        0.79300    0.74240    0.38010    1.000
    O87      O        0.84540    0.72450    0.52940    1.000
    O88      O        0.66740    0.67516    0.64970    1.000
    O89      O        0.75450    0.69179    0.71320    1.000
    O90      O        0.15390    0.33269    0.35280    1.000
    O91      O        0.73990    0.38660    0.94930    1.000
    O92      O        0.16130    0.36761    0.46970    1.000
    O93      O        0.65990    0.36750    0.00990    1.000
    O94      O        0.41160    0.69580    0.03730    1.000
    C173     C        0.69910    0.58820    0.12220    1.000
    C174     C        0.71300    0.65750    0.19690    1.000
    C175     C        0.70530    0.67390    0.70690    1.000
    C176     C        0.63980    0.58980    0.98870    1.000
    C177     C        0.68970    0.65020    0.77840    1.000
    C178     C        0.73040    0.68160    0.27210    1.000
    C179     C        0.65240    0.53840    0.98350    1.000
    C180     C        0.65880    0.61090    0.91440    1.000
    C181     C        0.69530    0.39560    0.97910    1.000
    C182     C        0.67990    0.44500    0.97950    1.000
    C183     C        0.72090    0.61090    0.19020    1.000
    C184     C        0.67090    0.61260    0.06110    1.000
    C185     C        0.68650    0.68220    0.13450    1.000
    C186     C        0.66550    0.65980    0.06800    1.000
    C187     C        0.57800    0.60020    0.99880    1.000
    C188     C        0.70800    0.63540    0.91550    1.000
    C189     C        0.62830    0.60240    0.84340    1.000
    C190     C        0.70590    0.52480    0.97290    1.000
    C191     C        0.72020    0.47770    0.97060    1.000
    C192     C        0.64290    0.62210    0.77650    1.000
    C193     C        0.72450    0.65390    0.84800    1.000
    C194     C        0.55810    0.58500    0.06620    1.000
    C195     C        0.62680    0.45920    0.99110    1.000
    C196     C        0.61370    0.50590    0.99390    1.000
    C197     C        0.48180    0.63590    0.04340    1.000
    C198     C        0.55030    0.63480    0.95870    1.000
    C199     C        0.50110    0.65100    0.98050    1.000
    C200     C        0.43150    0.66170    0.07430    1.000
    C201     C        0.50970    0.60160    0.09210    1.000
    C202     C        0.04320    0.47330    0.29280    1.000
    C203     C        0.97440    0.53960    0.30500    1.000
    C204     C        0.99110    0.60330    0.39360    1.000
    C205     C        0.89680    0.58440    0.33920    1.000
    C206     C        0.93300    0.61280    0.38510    1.000
    C207     C        0.08370    0.43280    0.40770    1.000
    C208     C        0.01090    0.56690    0.35400    1.000
    C209     C        0.04900    0.46740    0.37160    1.000
    C210     C        0.07310    0.44470    0.24710    1.000
    C211     C        0.91710    0.54770    0.29910    1.000
    C212     C        0.11120    0.40390    0.36130    1.000
    C213     C        0.14580    0.36540    0.39790    1.000
    C214     C        0.10630    0.40960    0.28090    1.000
    C215     C        0.91130    0.65390    0.42100    1.000
    O95      O        0.94350    0.67780    0.46620    1.000
    O96      O        0.41160    0.64860    0.13840    1.000
    O97      O        0.82790    0.72830    0.51320    1.000
    O98      O        0.69120    0.69860    0.41420    1.000
    O99      O        0.74960    0.69510    0.54520    1.000
    O100     O        0.78130    0.74470    0.40750    1.000
    Zr16     Zr       0.33395    0.29267    0.46643    1.000
    Zr17     Zr       0.20196    0.26889    0.37064    1.000
    Zr18     Zr       0.28593    0.17810    0.44742    1.000
    O101     O        0.20740    0.20780    0.43410    1.000
    O102     O        0.36100    0.16443    0.39660    1.000
    O103     O        0.26070    0.16038    0.32250    1.000
    O104     O        0.20910    0.22201    0.27440    1.000
    O105     O        0.25060    0.17620    0.56210    1.000
    O106     O        0.29300    0.24240    0.38010    1.000
    O107     O        0.34540    0.22450    0.52940    1.000
    O108     O        0.16740    0.17516    0.64970    1.000
    O109     O        0.25450    0.19179    0.71320    1.000
    O110     O        0.65390    0.83269    0.35280    1.000
    O111     O        0.23990    0.88660    0.94930    1.000
    O112     O        0.66130    0.86761    0.46970    1.000
    O113     O        0.15990    0.86750    0.00990    1.000
    O114     O        0.91160    0.19580    0.03730    1.000
    C216     C        0.19910    0.08820    0.12220    1.000
    C217     C        0.21300    0.15750    0.19690    1.000
    C218     C        0.20530    0.17390    0.70690    1.000
    C219     C        0.13980    0.08980    0.98870    1.000
    C220     C        0.18970    0.15020    0.77840    1.000
    C221     C        0.23040    0.18160    0.27210    1.000
    C222     C        0.15240    0.03840    0.98350    1.000
    C223     C        0.15880    0.11090    0.91440    1.000
    C224     C        0.19530    0.89560    0.97910    1.000
    C225     C        0.17990    0.94500    0.97950    1.000
    C226     C        0.22090    0.11090    0.19020    1.000
    C227     C        0.17090    0.11260    0.06110    1.000
    C228     C        0.18650    0.18220    0.13450    1.000
    C229     C        0.16550    0.15980    0.06800    1.000
    C230     C        0.07800    0.10020    0.99880    1.000
    C231     C        0.20800    0.13540    0.91550    1.000
    C232     C        0.12830    0.10240    0.84340    1.000
    C233     C        0.20590    0.02480    0.97290    1.000
    C234     C        0.22020    0.97770    0.97060    1.000
    C235     C        0.14290    0.12210    0.77650    1.000
    C236     C        0.22450    0.15390    0.84800    1.000
    C237     C        0.05810    0.08500    0.06620    1.000
    C238     C        0.12680    0.95920    0.99110    1.000
    C239     C        0.11370    0.00590    0.99390    1.000
    C240     C        0.98180    0.13590    0.04340    1.000
    C241     C        0.05030    0.13480    0.95870    1.000
    C242     C        0.00110    0.15100    0.98050    1.000
    C243     C        0.93150    0.16170    0.07430    1.000
    C244     C        0.00970    0.10160    0.09210    1.000
    C245     C        0.54320    0.97330    0.29280    1.000
    C246     C        0.47440    0.03960    0.30500    1.000
    C247     C        0.49110    0.10330    0.39360    1.000
    C248     C        0.39680    0.08440    0.33920    1.000
    C249     C        0.43300    0.11280    0.38510    1.000
    C250     C        0.58370    0.93280    0.40770    1.000
    C251     C        0.51090    0.06690    0.35400    1.000
    C252     C        0.54900    0.96740    0.37160    1.000
    C253     C        0.57310    0.94470    0.24710    1.000
    C254     C        0.41710    0.04770    0.29910    1.000
    C255     C        0.61120    0.90390    0.36130    1.000
    C256     C        0.64580    0.86540    0.39790    1.000
    C257     C        0.60630    0.90960    0.28090    1.000
    C258     C        0.41130    0.15390    0.42100    1.000
    O115     O        0.44350    0.17780    0.46620    1.000
    O116     O        0.91160    0.14860    0.13840    1.000
    O117     O        0.32790    0.22830    0.51320    1.000
    O118     O        0.19120    0.19860    0.41420    1.000
    O119     O        0.24960    0.19510    0.54520    1.000
    O120     O        0.28130    0.24470    0.40750    1.000
    Zr19     Zr       0.16605    0.79267    0.03357    1.000
    Zr20     Zr       0.29804    0.76889    0.12936    1.000
    Zr21     Zr       0.21407    0.67810    0.05258    1.000
    O121     O        0.29260    0.70780    0.06590    1.000
    O122     O        0.13900    0.66443    0.10340    1.000
    O123     O        0.23930    0.66038    0.17750    1.000
    O124     O        0.29090    0.72201    0.22560    1.000
    O125     O        0.24940    0.67620    0.93790    1.000
    O126     O        0.20700    0.74240    0.11990    1.000
    O127     O        0.15460    0.72450    0.97060    1.000
    O128     O        0.33260    0.67516    0.85030    1.000
    O129     O        0.24550    0.69179    0.78680    1.000
    O130     O        0.84610    0.33269    0.14720    1.000
    O131     O        0.26010    0.38660    0.55070    1.000
    O132     O        0.83870    0.36761    0.03030    1.000
    O133     O        0.34010    0.36750    0.49010    1.000
    O134     O        0.58840    0.69580    0.46270    1.000
    C259     C        0.30090    0.58820    0.37780    1.000
    C260     C        0.28700    0.65750    0.30310    1.000
    C261     C        0.29470    0.67390    0.79310    1.000
    C262     C        0.36020    0.58980    0.51130    1.000
    C263     C        0.31030    0.65020    0.72160    1.000
    C264     C        0.26960    0.68160    0.22790    1.000
    C265     C        0.34760    0.53840    0.51650    1.000
    C266     C        0.34120    0.61090    0.58560    1.000
    C267     C        0.30470    0.39560    0.52090    1.000
    C268     C        0.32010    0.44500    0.52050    1.000
    C269     C        0.27910    0.61090    0.30980    1.000
    C270     C        0.32910    0.61260    0.43890    1.000
    C271     C        0.31350    0.68220    0.36550    1.000
    C272     C        0.33450    0.65980    0.43200    1.000
    C273     C        0.42200    0.60020    0.50120    1.000
    C274     C        0.29200    0.63540    0.58450    1.000
    C275     C        0.37170    0.60240    0.65660    1.000
    C276     C        0.29410    0.52480    0.52710    1.000
    C277     C        0.27980    0.47770    0.52940    1.000
    C278     C        0.35710    0.62210    0.72350    1.000
    C279     C        0.27550    0.65390    0.65200    1.000
    C280     C        0.44190    0.58500    0.43380    1.000
    C281     C        0.37320    0.45920    0.50890    1.000
    C282     C        0.38630    0.50590    0.50610    1.000
    C283     C        0.51820    0.63590    0.45660    1.000
    C284     C        0.44970    0.63480    0.54130    1.000
    C285     C        0.49890    0.65100    0.51950    1.000
    C286     C        0.56850    0.66170    0.42570    1.000
    C287     C        0.49030    0.60160    0.40790    1.000
    C288     C        0.95680    0.47330    0.20720    1.000
    C289     C        0.02560    0.53960    0.19500    1.000
    C290     C        0.00890    0.60330    0.10640    1.000
    C291     C        0.10320    0.58440    0.16080    1.000
    C292     C        0.06700    0.61280    0.11490    1.000
    C293     C        0.91630    0.43280    0.09230    1.000
    C294     C        0.98910    0.56690    0.14600    1.000
    C295     C        0.95100    0.46740    0.12840    1.000
    C296     C        0.92690    0.44470    0.25290    1.000
    C297     C        0.08290    0.54770    0.20090    1.000
    C298     C        0.88880    0.40390    0.13870    1.000
    C299     C        0.85420    0.36540    0.10210    1.000
    C300     C        0.89370    0.40960    0.21910    1.000
    C301     C        0.08870    0.65390    0.07900    1.000
    O135     O        0.05650    0.67780    0.03380    1.000
    O136     O        0.58840    0.64860    0.36160    1.000
    O137     O        0.17210    0.72830    0.98680    1.000
    O138     O        0.30880    0.69860    0.08580    1.000
    O139     O        0.25040    0.69510    0.95480    1.000
    O140     O        0.21870    0.74470    0.09250    1.000
    Zr22     Zr       0.66605    0.29267    0.03357    1.000
    Zr23     Zr       0.79804    0.26889    0.12936    1.000
    Zr24     Zr       0.71407    0.17810    0.05258    1.000
    O141     O        0.79260    0.20780    0.06590    1.000
    O142     O        0.63900    0.16443    0.10340    1.000
    O143     O        0.73930    0.16038    0.17750    1.000
    O144     O        0.79090    0.22201    0.22560    1.000
    O145     O        0.74940    0.17620    0.93790    1.000
    O146     O        0.70700    0.24240    0.11990    1.000
    O147     O        0.65460    0.22450    0.97060    1.000
    O148     O        0.83260    0.17516    0.85030    1.000
    O149     O        0.74550    0.19179    0.78680    1.000
    O150     O        0.34610    0.83269    0.14720    1.000
    O151     O        0.76010    0.88660    0.55070    1.000
    O152     O        0.33870    0.86761    0.03030    1.000
    O153     O        0.84010    0.86750    0.49010    1.000
    O154     O        0.08840    0.19580    0.46270    1.000
    C302     C        0.80090    0.08820    0.37780    1.000
    C303     C        0.78700    0.15750    0.30310    1.000
    C304     C        0.79470    0.17390    0.79310    1.000
    C305     C        0.86020    0.08980    0.51130    1.000
    C306     C        0.81030    0.15020    0.72160    1.000
    C307     C        0.76960    0.18160    0.22790    1.000
    C308     C        0.84760    0.03840    0.51650    1.000
    C309     C        0.84120    0.11090    0.58560    1.000
    C310     C        0.80470    0.89560    0.52090    1.000
    C311     C        0.82010    0.94500    0.52050    1.000
    C312     C        0.77910    0.11090    0.30980    1.000
    C313     C        0.82910    0.11260    0.43890    1.000
    C314     C        0.81350    0.18220    0.36550    1.000
    C315     C        0.83450    0.15980    0.43200    1.000
    C316     C        0.92200    0.10020    0.50120    1.000
    C317     C        0.79200    0.13540    0.58450    1.000
    C318     C        0.87170    0.10240    0.65660    1.000
    C319     C        0.79410    0.02480    0.52710    1.000
    C320     C        0.77980    0.97770    0.52940    1.000
    C321     C        0.85710    0.12210    0.72350    1.000
    C322     C        0.77550    0.15390    0.65200    1.000
    C323     C        0.94190    0.08500    0.43380    1.000
    C324     C        0.87320    0.95920    0.50890    1.000
    C325     C        0.88630    0.00590    0.50610    1.000
    C326     C        0.01820    0.13590    0.45660    1.000
    C327     C        0.94970    0.13480    0.54130    1.000
    C328     C        0.99890    0.15100    0.51950    1.000
    C329     C        0.06850    0.16170    0.42570    1.000
    C330     C        0.99030    0.10160    0.40790    1.000
    C331     C        0.45680    0.97330    0.20720    1.000
    C332     C        0.52560    0.03960    0.19500    1.000
    C333     C        0.50890    0.10330    0.10640    1.000
    C334     C        0.60320    0.08440    0.16080    1.000
    C335     C        0.56700    0.11280    0.11490    1.000
    C336     C        0.41630    0.93280    0.09230    1.000
    C337     C        0.48910    0.06690    0.14600    1.000
    C338     C        0.45100    0.96740    0.12840    1.000
    C339     C        0.42690    0.94470    0.25290    1.000
    C340     C        0.58290    0.04770    0.20090    1.000
    C341     C        0.38880    0.90390    0.13870    1.000
    C342     C        0.35420    0.86540    0.10210    1.000
    C343     C        0.39370    0.90960    0.21910    1.000
    C344     C        0.58870    0.15390    0.07900    1.000
    O155     O        0.55650    0.17780    0.03380    1.000
    O156     O        0.08840    0.14860    0.36160    1.000
    O157     O        0.67210    0.22830    0.98680    1.000
    O158     O        0.80880    0.19860    0.08580    1.000
    O159     O        0.75040    0.19510    0.95480    1.000
    O160     O        0.71870    0.24470    0.09250    1.000
    C345     C        0.00000    0.49410    0.75000    1.000
    C346     C        0.50000    0.99410    0.75000    1.000
    C347     C        0.00000    0.50590    0.25000    1.000
    C348     C        0.50000    0.00590    0.25000    1.000
