# CIF file generated by openbabel 3.1.0, see https://openbabel.org
data_I
_chemical_name_common 'DEYJOI_clean'
_cell_length_a 7.7745
_cell_length_b 11.4635
_cell_length_c 13.5377
_cell_angle_alpha 96.803
_cell_angle_beta 105.71
_cell_angle_gamma 99.225
_space_group_name_H-M_alt 'P 1'
_space_group_name_Hall 'P 1'
loop_
    _symmetry_equiv_pos_as_xyz
    x,y,z
loop_
    _atom_site_label
    _atom_site_type_symbol
    _atom_site_fract_x
    _atom_site_fract_y
    _atom_site_fract_z
    _atom_site_occupancy
    V1       V        0.85757    0.67661    0.97477    1.000
    V2       V        0.79445    0.41953    0.86044    1.000
    V3       V        0.14243    0.32339    0.02523    1.000
    V4       V        0.20555    0.58047    0.13956    1.000
    Co1      Co       0.50000    0.50000    0.00000    1.000
    Co2      Co       0.00000    0.00000    0.00000    1.000
    H1       H        0.07810    0.86390    0.81840    1.000
    H2       H        0.08200    0.87360    0.65130    1.000
    H3       H        0.87290    0.17070    0.66760    1.000
    H4       H        0.86870    0.14880    0.83350    1.000
    H5       H        0.94920    0.10770    0.51050    1.000
    H6       H        0.66330    0.65570    0.21730    1.000
    H7       H        0.81950    0.64200    0.38660    1.000
    H8       H        0.91360    0.32750    0.27340    1.000
    H9       H        0.73080    0.34100    0.11360    1.000
    H10      H        0.05910    0.40570    0.45730    1.000
    H11      H        0.92190    0.13610    0.18160    1.000
    H12      H        0.91800    0.12640    0.34870    1.000
    H13      H        0.12710    0.82930    0.33240    1.000
    H14      H        0.13130    0.85120    0.16650    1.000
    H15      H        0.05080    0.89230    0.48950    1.000
    H16      H        0.33670    0.34430    0.78270    1.000
    H17      H        0.18050    0.35800    0.61340    1.000
    H18      H        0.08640    0.67250    0.72660    1.000
    H19      H        0.26920    0.65900    0.88640    1.000
    H20      H        0.94090    0.59430    0.54270    1.000
    C1       C        0.03610    0.92622    0.78735    1.000
    C2       C        0.03930    0.93157    0.68690    1.000
    C3       C        0.97810    0.02451    0.63882    1.000
    C4       C        0.91470    0.10696    0.69623    1.000
    C5       C        0.91420    0.09375    0.79664    1.000
    C6       C        0.97980    0.03820    0.53305    1.000
    C7       C        0.70910    0.58707    0.23002    1.000
    C8       C        0.80740    0.58070    0.33220    1.000
    C9       C        0.88680    0.48160    0.35140    1.000
    C10      C        0.85910    0.39370    0.26550    1.000
    C11      C        0.75150    0.40360    0.16850    1.000
    C12      C        0.99370    0.46700    0.45466    1.000
    C13      C        0.96390    0.07378    0.21265    1.000
    C14      C        0.96070    0.06843    0.31310    1.000
    C15      C        0.02190    0.97549    0.36118    1.000
    C16      C        0.08530    0.89304    0.30377    1.000
    C17      C        0.08580    0.90625    0.20336    1.000
    C18      C        0.02020    0.96180    0.46695    1.000
    C19      C        0.29090    0.41293    0.76998    1.000
    C20      C        0.19260    0.41930    0.66780    1.000
    C21      C        0.11320    0.51840    0.64860    1.000
    C22      C        0.14090    0.60630    0.73450    1.000
    C23      C        0.24850    0.59640    0.83150    1.000
    C24      C        0.00630    0.53300    0.54534    1.000
    N1       N        0.97560    0.00610    0.84259    1.000
    N2       N        0.67610    0.49765    0.14954    1.000
    N3       N        0.02440    0.99390    0.15741    1.000
    N4       N        0.32390    0.50235    0.85046    1.000
    O1       O        0.65409    0.40366    0.93261    1.000
    O2       O        0.65056    0.66348    0.98979    1.000
    O3       O        0.00154    0.63258    0.08305    1.000
    O4       O        0.93805    0.81564    0.96682    1.000
    O5       O        0.84735    0.57848    0.85880    1.000
    O6       O        0.34591    0.59634    0.06739    1.000
    O7       O        0.34944    0.33652    0.01021    1.000
    O8       O        0.99846    0.36742    0.91695    1.000
    O9       O        0.06195    0.18436    0.03318    1.000
    O10      O        0.15265    0.42152    0.14120    1.000
