# CIF file generated by openbabel 3.1.0, see https://openbabel.org
data_I
_chemical_name_common 'EZUCIM_clean'
_cell_length_a 8.741
_cell_length_b 14.796
_cell_length_c 19.34
_cell_angle_alpha 90
_cell_angle_beta 90
_cell_angle_gamma 90
_space_group_name_H-M_alt 'P 1'
_space_group_name_Hall 'P 1'
loop_
    _symmetry_equiv_pos_as_xyz
    x,y,z
loop_
    _atom_site_label
    _atom_site_type_symbol
    _atom_site_fract_x
    _atom_site_fract_y
    _atom_site_fract_z
    _atom_site_occupancy
    Zn1      Zn       0.36854    0.04448    0.92670    1.000
    Zn2      Zn       0.13146    0.95552    0.42670    1.000
    Zn3      Zn       0.63146    0.54448    0.57330    1.000
    Zn4      Zn       0.86854    0.45552    0.07330    1.000
    H1       H        0.69630    0.86590    0.50040    1.000
    H2       H        0.15570    0.02880    0.69130    1.000
    H3       H        0.73730    0.71210    0.49950    1.000
    H4       H        0.83270    0.11660    0.58020    1.000
    H5       H        0.77810    0.02160    0.60600    1.000
    H6       H        0.15880    0.04930    0.80830    1.000
    H7       H        0.37430    0.82690    0.64420    1.000
    H8       H        0.41850    0.67790    0.63870    1.000
    H9       H        0.58990    0.98600    0.81980    1.000
    H10      H        0.60570    0.96540    0.70230    1.000
    H11      H        0.29500    0.99900    0.59500    1.000
    H12      H        0.68900    0.07400    0.46700    1.000
    H13      H        0.80370    0.13410    0.00040    1.000
    H14      H        0.34430    0.97120    0.19130    1.000
    H15      H        0.76270    0.28790    0.99950    1.000
    H16      H        0.66730    0.88340    0.08020    1.000
    H17      H        0.72190    0.97840    0.10600    1.000
    H18      H        0.34120    0.95070    0.30830    1.000
    H19      H        0.12570    0.17310    0.14420    1.000
    H20      H        0.08150    0.32210    0.13870    1.000
    H21      H        0.91010    0.01400    0.31980    1.000
    H22      H        0.89430    0.03460    0.20230    1.000
    H23      H        0.20500    0.00100    0.09500    1.000
    H24      H        0.81100    0.92600    0.96700    1.000
    H25      H        0.30370    0.36590    0.99960    1.000
    H26      H        0.84430    0.52880    0.80870    1.000
    H27      H        0.26270    0.21210    0.00050    1.000
    H28      H        0.16730    0.61660    0.91980    1.000
    H29      H        0.22190    0.52160    0.89400    1.000
    H30      H        0.84120    0.54930    0.69170    1.000
    H31      H        0.62570    0.32690    0.85580    1.000
    H32      H        0.58150    0.17790    0.86130    1.000
    H33      H        0.41010    0.48600    0.68020    1.000
    H34      H        0.39430    0.46540    0.79770    1.000
    H35      H        0.70500    0.49900    0.90500    1.000
    H36      H        0.31100    0.57400    0.03300    1.000
    H37      H        0.19630    0.63410    0.49960    1.000
    H38      H        0.65570    0.47120    0.30870    1.000
    H39      H        0.23730    0.78790    0.50050    1.000
    H40      H        0.33270    0.38340    0.41980    1.000
    H41      H        0.27810    0.47840    0.39400    1.000
    H42      H        0.65880    0.45070    0.19170    1.000
    H43      H        0.87430    0.67310    0.35580    1.000
    H44      H        0.91850    0.82210    0.36130    1.000
    H45      H        0.08990    0.51400    0.18020    1.000
    H46      H        0.10570    0.53460    0.29770    1.000
    H47      H        0.79500    0.50100    0.40500    1.000
    H48      H        0.18900    0.42600    0.53300    1.000
    C1       C        0.68240    0.05840    0.51670    1.000
    C2       C        0.38250    0.99790    0.68250    1.000
    C3       C        0.55160    0.01520    0.52100    1.000
    C4       C        0.53170    0.86530    0.57330    1.000
    C5       C        0.63950    0.82870    0.52940    1.000
    C6       C        0.24580    0.02090    0.71610    1.000
    C7       C        0.66280    0.73520    0.52900    1.000
    C8       C        0.80930    0.05550    0.56550    1.000
    C9       C        0.95190    0.01330    0.53600    1.000
    C10      C        0.24860    0.03140    0.78650    1.000
    C11      C        0.44890    0.80510    0.61430    1.000
    C12      C        0.47650    0.71570    0.61060    1.000
    C13      C        0.50260    0.99450    0.79310    1.000
    C14      C        0.51390    0.98280    0.72270    1.000
    C15      C        0.43290    0.01820    0.46470    1.000
    C16      C        0.81760    0.94160    0.01670    1.000
    C17      C        0.11750    0.00210    0.18250    1.000
    C18      C        0.94840    0.98480    0.02100    1.000
    C19      C        0.96830    0.13470    0.07330    1.000
    C20      C        0.86050    0.17130    0.02940    1.000
    C21      C        0.25420    0.97910    0.21610    1.000
    C22      C        0.83720    0.26480    0.02900    1.000
    C23      C        0.69070    0.94450    0.06550    1.000
    C24      C        0.54810    0.98670    0.03600    1.000
    C25      C        0.25140    0.96860    0.28650    1.000
    C26      C        0.05110    0.19490    0.11430    1.000
    C27      C        0.02350    0.28430    0.11060    1.000
    C28      C        0.99740    0.00550    0.29310    1.000
    C29      C        0.98610    0.01720    0.22270    1.000
    C30      C        0.06710    0.98180    0.96470    1.000
    C31      C        0.31760    0.55840    0.98330    1.000
    C32      C        0.61750    0.49790    0.81750    1.000
    C33      C        0.44840    0.51520    0.97900    1.000
    C34      C        0.46830    0.36530    0.92670    1.000
    C35      C        0.36050    0.32870    0.97060    1.000
    C36      C        0.75420    0.52090    0.78390    1.000
    C37      C        0.33720    0.23520    0.97100    1.000
    C38      C        0.19070    0.55550    0.93450    1.000
    C39      C        0.04810    0.51330    0.96400    1.000
    C40      C        0.75140    0.53140    0.71350    1.000
    C41      C        0.55110    0.30510    0.88570    1.000
    C42      C        0.52350    0.21570    0.88940    1.000
    C43      C        0.49740    0.49450    0.70690    1.000
    C44      C        0.48610    0.48280    0.77730    1.000
    C45      C        0.56710    0.51820    0.03530    1.000
    C46      C        0.18240    0.44160    0.48330    1.000
    C47      C        0.88250    0.50210    0.31750    1.000
    C48      C        0.05160    0.48480    0.47900    1.000
    C49      C        0.03170    0.63470    0.42670    1.000
    C50      C        0.13950    0.67130    0.47060    1.000
    C51      C        0.74580    0.47910    0.28390    1.000
    C52      C        0.16280    0.76480    0.47100    1.000
    C53      C        0.30930    0.44450    0.43450    1.000
    C54      C        0.45190    0.48670    0.46400    1.000
    C55      C        0.74860    0.46860    0.21350    1.000
    C56      C        0.94890    0.69490    0.38570    1.000
    C57      C        0.97650    0.78430    0.38940    1.000
    C58      C        0.00260    0.50550    0.20690    1.000
    C59      C        0.01390    0.51720    0.27730    1.000
    C60      C        0.93290    0.48180    0.53530    1.000
    N1       N        0.37940    0.98850    0.61260    1.000
    N2       N        0.51160    0.95720    0.57830    1.000
    N3       N        0.58410    0.67640    0.56860    1.000
    N4       N        0.37170    0.01760    0.82550    1.000
    N5       N        0.12060    0.01150    0.11260    1.000
    N6       N        0.98840    0.04280    0.07830    1.000
    N7       N        0.91590    0.32360    0.06860    1.000
    N8       N        0.12830    0.98240    0.32550    1.000
    N9       N        0.62060    0.48850    0.88740    1.000
    N10      N        0.48840    0.45720    0.92170    1.000
    N11      N        0.41590    0.17640    0.93140    1.000
    N12      N        0.62830    0.51760    0.67450    1.000
    N13      N        0.87940    0.51150    0.38740    1.000
    N14      N        0.01160    0.54280    0.42170    1.000
    N15      N        0.08410    0.82360    0.43140    1.000
    N16      N        0.87170    0.48240    0.17450    1.000
    O1       O        0.96770    0.02350    0.47030    1.000
    O2       O        0.04510    0.97340    0.57280    1.000
    O3       O        0.44440    0.07130    0.41500    1.000
    O4       O        0.32570    0.96040    0.47250    1.000
    O5       O        0.53230    0.97650    0.97030    1.000
    O6       O        0.45490    0.02660    0.07280    1.000
    O7       O        0.05560    0.92870    0.91500    1.000
    O8       O        0.17430    0.03960    0.97250    1.000
    O9       O        0.03230    0.52350    0.02970    1.000
    O10      O        0.95490    0.47340    0.92720    1.000
    O11      O        0.55560    0.57130    0.08500    1.000
    O12      O        0.67430    0.46040    0.02750    1.000
    O13      O        0.46770    0.47650    0.52970    1.000
    O14      O        0.54510    0.52660    0.42720    1.000
    O15      O        0.94440    0.42870    0.58500    1.000
    O16      O        0.82570    0.53960    0.52750    1.000
