# CIF file generated by openbabel 3.1.0, see https://openbabel.org
data_I
_chemical_name_common 'image0'
_cell_length_a 12.821
_cell_length_b 11.0944
_cell_length_c 19.2042
_cell_angle_alpha 90
_cell_angle_beta 103.325
_cell_angle_gamma 90
_space_group_name_H-M_alt 'P 1'
_space_group_name_Hall 'P 1'
loop_
    _symmetry_equiv_pos_as_xyz
    x,y,z
loop_
    _atom_site_label
    _atom_site_type_symbol
    _atom_site_fract_x
    _atom_site_fract_y
    _atom_site_fract_z
    _atom_site_occupancy
    Zn1      Zn       0.16322    0.82062    0.97169    1.000
    Ba1      Ba       0.87084    0.95736    0.88732    1.000
    O1       O        0.01797    0.86220    0.01030    1.000
    O2       O        0.07605    0.67530    0.01603    1.000
    O3       O        0.70975    0.84940    0.13134    1.000
    O4       O        0.65138    0.74660    0.37561    1.000
    O5       O        0.47319    0.74060    0.35948    1.000
    O6       O        0.24508    0.84230    0.11748    1.000
    O7       O        0.31278    0.78380    0.02647    1.000
    O8       O        0.93361    0.97790    0.12720    1.000
    O9       O        0.81239    0.99420    0.02395    1.000
    C1       C        0.00870    0.74990    0.02565    1.000
    C2       C        0.91530    0.71340    0.05548    1.000
    C3       C        0.89630    0.59040    0.06254    1.000
    H1       H        0.94010    0.53370    0.04780    1.000
    C4       C        0.81260    0.55310    0.09140    1.000
    H2       H        0.79980    0.47120    0.09560    1.000
    C5       C        0.74710    0.63740    0.11416    1.000
    H3       H        0.69100    0.61210    0.13390    1.000
    C6       C        0.76630    0.75960    0.10718    1.000
    C7       C        0.84960    0.79890    0.07704    1.000
    C8       C        0.62120    0.82020    0.15898    1.000
    C9       C        0.63430    0.80410    0.23138    1.000
    H4       H        0.70240    0.80530    0.26140    1.000
    C10      C        0.54460    0.78600    0.25940    1.000
    C11      C        0.44280    0.78990    0.21377    1.000
    H5       H        0.38240    0.78320    0.23260    1.000
    C12      C        0.43080    0.80370    0.14072    1.000
    C13      C        0.52130    0.81620    0.11296    1.000
    H6       H        0.51450    0.82190    0.06380    1.000
    C14      C        0.55590    0.75650    0.33739    1.000
    C15      C        0.32110    0.80990    0.09172    1.000
    C16      C        0.86770    0.93440    0.07630    1.000
    Zn2      Zn       0.33678    0.32062    0.52831    1.000
    Ba2      Ba       0.62916    0.45736    0.61268    1.000
    O10      O        0.48203    0.36220    0.48970    1.000
    O11      O        0.42395    0.17530    0.48397    1.000
    O12      O        0.79025    0.34940    0.36866    1.000
    O13      O        0.84862    0.24660    0.12439    1.000
    O14      O        0.02681    0.24060    0.14052    1.000
    O15      O        0.25492    0.34230    0.38252    1.000
    O16      O        0.18722    0.28380    0.47353    1.000
    O17      O        0.56639    0.47790    0.37280    1.000
    O18      O        0.68761    0.49420    0.47605    1.000
    C17      C        0.49130    0.24990    0.47435    1.000
    C18      C        0.58470    0.21340    0.44452    1.000
    C19      C        0.60370    0.09040    0.43746    1.000
    H7       H        0.55990    0.03370    0.45220    1.000
    C20      C        0.68740    0.05310    0.40860    1.000
    H8       H        0.70020    0.97120    0.40440    1.000
    C21      C        0.75290    0.13740    0.38584    1.000
    H9       H        0.80900    0.11210    0.36610    1.000
    C22      C        0.73370    0.25960    0.39282    1.000
    C23      C        0.65040    0.29890    0.42296    1.000
    C24      C        0.87880    0.32020    0.34102    1.000
    C25      C        0.86570    0.30410    0.26862    1.000
    H10      H        0.79760    0.30530    0.23860    1.000
    C26      C        0.95540    0.28600    0.24060    1.000
    C27      C        0.05720    0.28990    0.28623    1.000
    H11      H        0.11760    0.28320    0.26740    1.000
    C28      C        0.06920    0.30370    0.35928    1.000
    C29      C        0.97870    0.31620    0.38704    1.000
    H12      H        0.98550    0.32190    0.43620    1.000
    C30      C        0.94410    0.25650    0.16261    1.000
    C31      C        0.17890    0.30990    0.40828    1.000
    C32      C        0.63230    0.43440    0.42370    1.000
    Zn3      Zn       0.83678    0.17938    0.02831    1.000
    Ba3      Ba       0.12916    0.04264    0.11268    1.000
    O19      O        0.98203    0.13780    0.98970    1.000
    O20      O        0.92395    0.32470    0.98397    1.000
    O21      O        0.29025    0.15060    0.86866    1.000
    O22      O        0.34862    0.25340    0.62439    1.000
    O23      O        0.52681    0.25940    0.64052    1.000
    O24      O        0.75492    0.15770    0.88252    1.000
    O25      O        0.68722    0.21620    0.97353    1.000
    O26      O        0.06639    0.02210    0.87280    1.000
    O27      O        0.18761    0.00580    0.97605    1.000
    C33      C        0.99130    0.25010    0.97435    1.000
    C34      C        0.08470    0.28660    0.94452    1.000
    C35      C        0.10370    0.40960    0.93746    1.000
    H13      H        0.05990    0.46630    0.95220    1.000
    C36      C        0.18740    0.44690    0.90860    1.000
    H14      H        0.20020    0.52880    0.90440    1.000
    C37      C        0.25290    0.36260    0.88584    1.000
    H15      H        0.30900    0.38790    0.86610    1.000
    C38      C        0.23370    0.24040    0.89282    1.000
    C39      C        0.15040    0.20110    0.92296    1.000
    C40      C        0.37880    0.17980    0.84102    1.000
    C41      C        0.36570    0.19590    0.76862    1.000
    H16      H        0.29760    0.19470    0.73860    1.000
    C42      C        0.45540    0.21400    0.74060    1.000
    C43      C        0.55720    0.21010    0.78623    1.000
    H17      H        0.61760    0.21680    0.76740    1.000
    C44      C        0.56920    0.19630    0.85928    1.000
    C45      C        0.47870    0.18380    0.88704    1.000
    H18      H        0.48550    0.17810    0.93620    1.000
    C46      C        0.44410    0.24350    0.66261    1.000
    C47      C        0.67890    0.19010    0.90828    1.000
    C48      C        0.13230    0.06560    0.92370    1.000
    Zn4      Zn       0.66322    0.67938    0.47169    1.000
    Ba4      Ba       0.37084    0.54264    0.38732    1.000
    O28      O        0.51797    0.63780    0.51030    1.000
    O29      O        0.57605    0.82470    0.51603    1.000
    O30      O        0.20975    0.65060    0.63134    1.000
    O31      O        0.15138    0.75340    0.87561    1.000
    O32      O        0.97319    0.75940    0.85948    1.000
    O33      O        0.74508    0.65770    0.61748    1.000
    O34      O        0.81278    0.71620    0.52647    1.000
    O35      O        0.43361    0.52210    0.62720    1.000
    O36      O        0.31239    0.50580    0.52395    1.000
    C49      C        0.50870    0.75010    0.52565    1.000
    C50      C        0.41530    0.78660    0.55548    1.000
    C51      C        0.39630    0.90960    0.56254    1.000
    H19      H        0.44010    0.96630    0.54780    1.000
    C52      C        0.31260    0.94690    0.59140    1.000
    H20      H        0.29980    0.02880    0.59560    1.000
    C53      C        0.24710    0.86260    0.61416    1.000
    H21      H        0.19100    0.88790    0.63390    1.000
    C54      C        0.26630    0.74040    0.60718    1.000
    C55      C        0.34960    0.70110    0.57704    1.000
    C56      C        0.12120    0.67980    0.65898    1.000
    C57      C        0.13430    0.69590    0.73138    1.000
    H22      H        0.20240    0.69470    0.76140    1.000
    C58      C        0.04460    0.71400    0.75940    1.000
    C59      C        0.94280    0.71010    0.71377    1.000
    H23      H        0.88240    0.71680    0.73260    1.000
    C60      C        0.93080    0.69630    0.64072    1.000
    C61      C        0.02130    0.68380    0.61296    1.000
    H24      H        0.01450    0.67810    0.56380    1.000
    C62      C        0.05590    0.74350    0.83739    1.000
    C63      C        0.82110    0.69010    0.59172    1.000
    C64      C        0.36770    0.56560    0.57630    1.000
