# CIF file generated by openbabel 3.1.0, see https://openbabel.org
data_I
_chemical_name_common 'image0'
_cell_length_a 11.2582
_cell_length_b 11.8812
_cell_length_c 16.2122
_cell_angle_alpha 90
_cell_angle_beta 129.572
_cell_angle_gamma 90
_space_group_name_H-M_alt 'P 1'
_space_group_name_Hall 'P 1'
loop_
    _symmetry_equiv_pos_as_xyz
    x,y,z
loop_
    _atom_site_label
    _atom_site_type_symbol
    _atom_site_fract_x
    _atom_site_fract_y
    _atom_site_fract_z
    _atom_site_occupancy
    Zn1      Zn       0.32281    0.02597    0.48206    1.000
    S1       S        0.47779    0.96953    0.71520    1.000
    O1       O        0.43341    0.92822    0.61299    1.000
    O2       O        0.44000    0.08593    0.70899    1.000
    O3       O        0.63413    0.93936    0.80359    1.000
    O4       O        0.89376    0.98428    0.55582    1.000
    O5       O        0.85958    0.85290    0.63235    1.000
    O6       O        0.52511    0.64646    0.96536    1.000
    O7       O        0.28559    0.57930    0.87381    1.000
    C1       C        0.35820    0.89373    0.73172    1.000
    C2       C        0.20440    0.92535    0.67074    1.000
    H1       H        0.16530    0.98480    0.62140    1.000
    C3       C        0.10910    0.86844    0.68329    1.000
    C4       C        0.94420    0.90347    0.62006    1.000
    C5       C        0.16690    0.77911    0.75486    1.000
    H2       H        0.10190    0.74010    0.76260    1.000
    C6       C        0.32050    0.74732    0.81497    1.000
    C7       C        0.41680    0.80560    0.80369    1.000
    H3       H        0.52100    0.78510    0.84480    1.000
    C8       C        0.38210    0.65035    0.89053    1.000
    Zn2      Zn       0.67719    0.52597    0.01794    1.000
    S2       S        0.52221    0.46953    0.78480    1.000
    O8       O        0.56659    0.42822    0.88701    1.000
    O9       O        0.56000    0.58593    0.79101    1.000
    O10      O        0.36587    0.43936    0.69641    1.000
    O11      O        0.10624    0.48428    0.94418    1.000
    O12      O        0.14042    0.35290    0.86765    1.000
    O13      O        0.47489    0.14646    0.53464    1.000
    O14      O        0.71441    0.07930    0.62619    1.000
    C9       C        0.64180    0.39373    0.76828    1.000
    C10      C        0.79560    0.42535    0.82926    1.000
    H4       H        0.83470    0.48480    0.87860    1.000
    C11      C        0.89090    0.36844    0.81671    1.000
    C12      C        0.05580    0.40347    0.87994    1.000
    C13      C        0.83310    0.27911    0.74514    1.000
    H5       H        0.89810    0.24010    0.73740    1.000
    C14      C        0.67950    0.24732    0.68503    1.000
    C15      C        0.58320    0.30560    0.69631    1.000
    H6       H        0.47900    0.28510    0.65520    1.000
    C16      C        0.61790    0.15035    0.60947    1.000
    Zn3      Zn       0.67719    0.97403    0.51794    1.000
    S3       S        0.52221    0.03047    0.28480    1.000
    O15      O        0.56659    0.07178    0.38701    1.000
    O16      O        0.56000    0.91407    0.29101    1.000
    O17      O        0.36587    0.06064    0.19641    1.000
    O18      O        0.10624    0.01572    0.44418    1.000
    O19      O        0.14042    0.14710    0.36765    1.000
    O20      O        0.47489    0.35354    0.03464    1.000
    O21      O        0.71441    0.42070    0.12619    1.000
    C17      C        0.64180    0.10627    0.26828    1.000
    C18      C        0.79560    0.07465    0.32926    1.000
    H7       H        0.83470    0.01520    0.37860    1.000
    C19      C        0.89090    0.13156    0.31671    1.000
    C20      C        0.05580    0.09653    0.37994    1.000
    C21      C        0.83310    0.22089    0.24514    1.000
    H8       H        0.89810    0.25990    0.23740    1.000
    C22      C        0.67950    0.25268    0.18503    1.000
    C23      C        0.58320    0.19440    0.19631    1.000
    H9       H        0.47900    0.21490    0.15520    1.000
    C24      C        0.61790    0.34965    0.10947    1.000
    Zn4      Zn       0.32281    0.47403    0.98206    1.000
    S4       S        0.47779    0.53047    0.21520    1.000
    O22      O        0.43341    0.57178    0.11299    1.000
    O23      O        0.44000    0.41407    0.20899    1.000
    O24      O        0.63413    0.56064    0.30359    1.000
    O25      O        0.89376    0.51572    0.05582    1.000
    O26      O        0.85958    0.64710    0.13235    1.000
    O27      O        0.52511    0.85354    0.46536    1.000
    O28      O        0.28559    0.92070    0.37381    1.000
    C25      C        0.35820    0.60627    0.23172    1.000
    C26      C        0.20440    0.57465    0.17074    1.000
    H10      H        0.16530    0.51520    0.12140    1.000
    C27      C        0.10910    0.63156    0.18329    1.000
    C28      C        0.94420    0.59653    0.12006    1.000
    C29      C        0.16690    0.72089    0.25486    1.000
    H11      H        0.10190    0.75990    0.26260    1.000
    C30      C        0.32050    0.75268    0.31497    1.000
    C31      C        0.41680    0.69440    0.30369    1.000
    H12      H        0.52100    0.71490    0.34480    1.000
    C32      C        0.38210    0.84965    0.39053    1.000
