# CIF file generated by openbabel 3.1.0, see https://openbabel.org
data_I
_chemical_name_common 'image0'
_cell_length_a 8.1737
_cell_length_b 15.0092
_cell_length_c 37.574
_cell_angle_alpha 90
_cell_angle_beta 101.828
_cell_angle_gamma 90
_space_group_name_H-M_alt 'P 1'
_space_group_name_Hall 'P 1'
loop_
    _symmetry_equiv_pos_as_xyz
    x,y,z
loop_
    _atom_site_label
    _atom_site_type_symbol
    _atom_site_fract_x
    _atom_site_fract_y
    _atom_site_fract_z
    _atom_site_occupancy
    Eu1      Eu       0.31991    0.09839    0.98555    1.000
    O1       O        0.14980    0.08960    0.03367    1.000
    O2       O        0.38960    0.24030    0.95459    1.000
    O3       O        0.26550    0.21800    0.02674    1.000
    O4       O        0.49650    0.02650    0.46520    1.000
    O5       O        0.58850    0.17010    0.99217    1.000
    N1       N        0.04540    0.47510    0.95270    1.000
    C1       C        0.10740    0.20680    0.07340    1.000
    C2       C        0.83040    0.29090    0.98250    1.000
    H1       H        0.86190    0.24510    0.99910    1.000
    C3       C        0.54260    0.23360    0.97020    1.000
    N2       N        0.93250    0.14930    0.15413    1.000
    H2       H        0.92280    0.09340    0.15820    1.000
    C4       C        0.66820    0.29870    0.96340    1.000
    N3       N        0.11350    0.36220    0.99112    1.000
    N4       N        0.92500    0.29740    0.16173    1.000
    C5       C        0.94420    0.35320    0.97610    1.000
    C6       C        0.38900    0.54600    0.97340    1.000
    H3       H        0.31540    0.57710    0.95550    1.000
    C7       C        0.17710    0.16980    0.04310    1.000
    O6       O        0.34600    0.94400    0.42256    1.000
    C8       C        0.54360    0.19310    0.35370    1.000
    N5       N        0.61470    0.08710    0.31743    1.000
    H4       H        0.63230    0.03640    0.30820    1.000
    N6       N        0.59920    0.23500    0.32540    1.000
    C9       C        0.50880    0.04260    0.37290    1.000
    H5       H        0.50870    0.98150    0.36880    1.000
    C10      C        0.99010    0.18730    0.12560    1.000
    C11      C        0.55490    0.10170    0.34850    1.000
    C12      C        0.82900    0.20470    0.20800    1.000
    C13      C        0.43350    0.01280    0.43150    1.000
    C14      C        0.16610    0.43610    0.97600    1.000
    C15      C        0.46340    0.07610    0.40330    1.000
    C16      C        0.90330    0.42410    0.95210    1.000
    C17      C        0.89510    0.21680    0.17420    1.000
    C18      C        0.04870    0.14990    0.09690    1.000
    H6       H        0.04860    0.08850    0.09360    1.000
    C19      C        0.74390    0.10900    0.25200    1.000
    H7       H        0.72870    0.05190    0.26040    1.000
    C20      C        0.98670    0.27830    0.13090    1.000
    C21      C        0.45290    0.16850    0.40860    1.000
    H8       H        0.42020    0.18930    0.42940    1.000
    C22      C        0.10390    0.29930    0.07860    1.000
    H9       H        0.14390    0.33680    0.06270    1.000
    C23      C        0.49010    0.22900    0.38370    1.000
    H10      H        0.48000    0.29010    0.38670    1.000
    C24      C        0.63970    0.16650    0.30470    1.000
    C25      C        0.62470    0.36960    0.93820    1.000
    H11      H        0.51530    0.37400    0.92510    1.000
    C26      C        0.04220    0.33580    0.10700    1.000
    H12      H        0.03800    0.39720    0.10990    1.000
    C27      C        0.70700    0.18170    0.27120    1.000
    C28      C        0.80420    0.12010    0.22000    1.000
    H13      H        0.82720    0.07070    0.20690    1.000
    C29      C        0.74140    0.43240    0.93250    1.000
    H14      H        0.71140    0.47880    0.91610    1.000
    C30      C        0.45100    0.42360    0.01470    1.000
    H15      H        0.41770    0.37150    0.02460    1.000
    C31      C        0.33700    0.46870    0.98810    1.000
    C32      C        0.79170    0.27560    0.22740    1.000
    H16      H        0.80640    0.33270    0.21890    1.000
    C33      C        0.73360    0.26640    0.25880    1.000
    H17      H        0.71210    0.31640    0.27170    1.000
    H18      H        0.05300    0.52250    0.94030    1.000
    Eu2      Eu       0.68009    0.09839    0.51446    1.000
    O7       O        0.85020    0.08960    0.46633    1.000
    O8       O        0.61040    0.24030    0.54541    1.000
    O9       O        0.73450    0.21800    0.47326    1.000
    O10      O        0.50350    0.02650    0.03480    1.000
    O11      O        0.41150    0.17010    0.50783    1.000
    N7       N        0.95460    0.47510    0.54730    1.000
    C34      C        0.89260    0.20680    0.42660    1.000
    C35      C        0.16960    0.29090    0.51750    1.000
    H19      H        0.13810    0.24510    0.50090    1.000
    C36      C        0.45740    0.23360    0.52980    1.000
    N8       N        0.06750    0.14930    0.34587    1.000
    H20      H        0.07720    0.09340    0.34180    1.000
    C37      C        0.33180    0.29870    0.53660    1.000
    N9       N        0.88650    0.36220    0.50888    1.000
    N10      N        0.07500    0.29740    0.33827    1.000
    C38      C        0.05580    0.35320    0.52390    1.000
    C39      C        0.61100    0.54600    0.52660    1.000
    H21      H        0.68460    0.57710    0.54450    1.000
    C40      C        0.82290    0.16980    0.45690    1.000
    O12      O        0.65400    0.94400    0.07744    1.000
    C41      C        0.45640    0.19310    0.14630    1.000
    N11      N        0.38530    0.08710    0.18257    1.000
    H22      H        0.36770    0.03640    0.19180    1.000
    N12      N        0.40080    0.23500    0.17460    1.000
    C42      C        0.49120    0.04260    0.12710    1.000
    H23      H        0.49130    0.98150    0.13120    1.000
    C43      C        0.00990    0.18730    0.37440    1.000
    C44      C        0.44510    0.10170    0.15150    1.000
    C45      C        0.17100    0.20470    0.29200    1.000
    C46      C        0.56650    0.01280    0.06850    1.000
    C47      C        0.83390    0.43610    0.52400    1.000
    C48      C        0.53660    0.07610    0.09670    1.000
    C49      C        0.09670    0.42410    0.54790    1.000
    C50      C        0.10490    0.21680    0.32580    1.000
    C51      C        0.95130    0.14990    0.40310    1.000
    H24      H        0.95140    0.08850    0.40640    1.000
    C52      C        0.25610    0.10900    0.24800    1.000
    H25      H        0.27130    0.05190    0.23960    1.000
    C53      C        0.01330    0.27830    0.36910    1.000
    C54      C        0.54710    0.16850    0.09140    1.000
    H26      H        0.57980    0.18930    0.07060    1.000
    C55      C        0.89610    0.29930    0.42140    1.000
    H27      H        0.85610    0.33680    0.43730    1.000
    C56      C        0.50990    0.22900    0.11630    1.000
    H28      H        0.52000    0.29010    0.11330    1.000
    C57      C        0.36030    0.16650    0.19530    1.000
    C58      C        0.37530    0.36960    0.56180    1.000
    H29      H        0.48470    0.37400    0.57490    1.000
    C59      C        0.95780    0.33580    0.39300    1.000
    H30      H        0.96200    0.39720    0.39010    1.000
    C60      C        0.29300    0.18170    0.22880    1.000
    C61      C        0.19580    0.12010    0.28000    1.000
    H31      H        0.17280    0.07070    0.29310    1.000
    C62      C        0.25860    0.43240    0.56750    1.000
    H32      H        0.28860    0.47880    0.58390    1.000
    C63      C        0.54900    0.42360    0.48530    1.000
    H33      H        0.58230    0.37150    0.47540    1.000
    C64      C        0.66300    0.46870    0.51190    1.000
    C65      C        0.20830    0.27560    0.27260    1.000
    H34      H        0.19360    0.33270    0.28110    1.000
    C66      C        0.26640    0.26640    0.24120    1.000
    H35      H        0.28790    0.31640    0.22830    1.000
    H36      H        0.94700    0.52250    0.55970    1.000
    Eu3      Eu       0.68009    0.90161    0.01445    1.000
    O13      O        0.85020    0.91040    0.96633    1.000
    O14      O        0.61040    0.75970    0.04541    1.000
    O15      O        0.73450    0.78200    0.97326    1.000
    O16      O        0.50350    0.97350    0.53480    1.000
    O17      O        0.41150    0.82990    0.00783    1.000
    N13      N        0.95460    0.52490    0.04730    1.000
    C67      C        0.89260    0.79320    0.92660    1.000
    C68      C        0.16960    0.70910    0.01750    1.000
    H37      H        0.13810    0.75490    0.00090    1.000
    C69      C        0.45740    0.76640    0.02980    1.000
    N14      N        0.06750    0.85070    0.84587    1.000
    H38      H        0.07720    0.90660    0.84180    1.000
    C70      C        0.33180    0.70130    0.03660    1.000
    N15      N        0.88650    0.63780    0.00888    1.000
    N16      N        0.07500    0.70260    0.83827    1.000
    C71      C        0.05580    0.64680    0.02390    1.000
    C72      C        0.61100    0.45400    0.02660    1.000
    H39      H        0.68460    0.42290    0.04450    1.000
    C73      C        0.82290    0.83020    0.95690    1.000
    O18      O        0.65400    0.05600    0.57744    1.000
    C74      C        0.45640    0.80690    0.64630    1.000
    N17      N        0.38530    0.91290    0.68257    1.000
    H40      H        0.36770    0.96360    0.69180    1.000
    N18      N        0.40080    0.76500    0.67460    1.000
    C75      C        0.49120    0.95740    0.62710    1.000
    H41      H        0.49130    0.01850    0.63120    1.000
    C76      C        0.00990    0.81270    0.87440    1.000
    C77      C        0.44510    0.89830    0.65150    1.000
    C78      C        0.17100    0.79530    0.79200    1.000
    C79      C        0.56650    0.98720    0.56850    1.000
    C80      C        0.83390    0.56390    0.02400    1.000
    C81      C        0.53660    0.92390    0.59670    1.000
    C82      C        0.09670    0.57590    0.04790    1.000
    C83      C        0.10490    0.78320    0.82580    1.000
    C84      C        0.95130    0.85010    0.90310    1.000
    H42      H        0.95140    0.91150    0.90640    1.000
    C85      C        0.25610    0.89100    0.74800    1.000
    H43      H        0.27130    0.94810    0.73960    1.000
    C86      C        0.01330    0.72170    0.86910    1.000
    C87      C        0.54710    0.83150    0.59140    1.000
    H44      H        0.57980    0.81070    0.57060    1.000
    C88      C        0.89610    0.70070    0.92140    1.000
    H45      H        0.85610    0.66320    0.93730    1.000
    C89      C        0.50990    0.77100    0.61630    1.000
    H46      H        0.52000    0.70990    0.61330    1.000
    C90      C        0.36030    0.83350    0.69530    1.000
    C91      C        0.37530    0.63040    0.06180    1.000
    H47      H        0.48470    0.62600    0.07490    1.000
    C92      C        0.95780    0.66420    0.89300    1.000
    H48      H        0.96200    0.60280    0.89010    1.000
    C93      C        0.29300    0.81830    0.72880    1.000
    C94      C        0.19580    0.87990    0.78000    1.000
    H49      H        0.17280    0.92930    0.79310    1.000
    C95      C        0.25860    0.56760    0.06750    1.000
    H50      H        0.28860    0.52120    0.08390    1.000
    C96      C        0.54900    0.57640    0.98530    1.000
    H51      H        0.58230    0.62850    0.97540    1.000
    C97      C        0.66300    0.53130    0.01190    1.000
    C98      C        0.20830    0.72440    0.77260    1.000
    H52      H        0.19360    0.66730    0.78110    1.000
    C99      C        0.26640    0.73360    0.74120    1.000
    H53      H        0.28790    0.68360    0.72830    1.000
    H54      H        0.94700    0.47750    0.05970    1.000
    Eu4      Eu       0.31991    0.90161    0.48555    1.000
    O19      O        0.14980    0.91040    0.53367    1.000
    O20      O        0.38960    0.75970    0.45459    1.000
    O21      O        0.26550    0.78200    0.52674    1.000
    O22      O        0.49650    0.97350    0.96520    1.000
    O23      O        0.58850    0.82990    0.49217    1.000
    N19      N        0.04540    0.52490    0.45270    1.000
    C100     C        0.10740    0.79320    0.57340    1.000
    C101     C        0.83040    0.70910    0.48250    1.000
    H55      H        0.86190    0.75490    0.49910    1.000
    C102     C        0.54260    0.76640    0.47020    1.000
    N20      N        0.93250    0.85070    0.65413    1.000
    H56      H        0.92280    0.90660    0.65820    1.000
    C103     C        0.66820    0.70130    0.46340    1.000
    N21      N        0.11350    0.63780    0.49112    1.000
    N22      N        0.92500    0.70260    0.66173    1.000
    C104     C        0.94420    0.64680    0.47610    1.000
    C105     C        0.38900    0.45400    0.47340    1.000
    H57      H        0.31540    0.42290    0.45550    1.000
    C106     C        0.17710    0.83020    0.54310    1.000
    O24      O        0.34600    0.05600    0.92256    1.000
    C107     C        0.54360    0.80690    0.85370    1.000
    N23      N        0.61470    0.91290    0.81743    1.000
    H58      H        0.63230    0.96360    0.80820    1.000
    N24      N        0.59920    0.76500    0.82540    1.000
    C108     C        0.50880    0.95740    0.87290    1.000
    H59      H        0.50870    0.01850    0.86880    1.000
    C109     C        0.99010    0.81270    0.62560    1.000
    C110     C        0.55490    0.89830    0.84850    1.000
    C111     C        0.82900    0.79530    0.70800    1.000
    C112     C        0.43350    0.98720    0.93150    1.000
    C113     C        0.16610    0.56390    0.47600    1.000
    C114     C        0.46340    0.92390    0.90330    1.000
    C115     C        0.90330    0.57590    0.45210    1.000
    C116     C        0.89510    0.78320    0.67420    1.000
    C117     C        0.04870    0.85010    0.59690    1.000
    H60      H        0.04860    0.91150    0.59360    1.000
    C118     C        0.74390    0.89100    0.75200    1.000
    H61      H        0.72870    0.94810    0.76040    1.000
    C119     C        0.98670    0.72170    0.63090    1.000
    C120     C        0.45290    0.83150    0.90860    1.000
    H62      H        0.42020    0.81070    0.92940    1.000
    C121     C        0.10390    0.70070    0.57860    1.000
    H63      H        0.14390    0.66320    0.56270    1.000
    C122     C        0.49010    0.77100    0.88370    1.000
    H64      H        0.48000    0.70990    0.88670    1.000
    C123     C        0.63970    0.83350    0.80470    1.000
    C124     C        0.62470    0.63040    0.43820    1.000
    H65      H        0.51530    0.62600    0.42510    1.000
    C125     C        0.04220    0.66420    0.60700    1.000
    H66      H        0.03800    0.60280    0.60990    1.000
    C126     C        0.70700    0.81830    0.77120    1.000
    C127     C        0.80420    0.87990    0.72000    1.000
    H67      H        0.82720    0.92930    0.70690    1.000
    C128     C        0.74140    0.56760    0.43250    1.000
    H68      H        0.71140    0.52120    0.41610    1.000
    C129     C        0.45100    0.57640    0.51470    1.000
    H69      H        0.41770    0.62850    0.52460    1.000
    C130     C        0.33700    0.53130    0.48810    1.000
    C131     C        0.79170    0.72440    0.72740    1.000
    H70      H        0.80640    0.66730    0.71890    1.000
    C132     C        0.73360    0.73360    0.75880    1.000
    H71      H        0.71210    0.68360    0.77170    1.000
    H72      H        0.05300    0.47750    0.44030    1.000
