# CIF file generated by openbabel 3.1.0, see https://openbabel.org
data_I
_chemical_name_common 'image0'
_cell_length_a 8.3576
_cell_length_b 10.5283
_cell_length_c 17.4675
_cell_angle_alpha 98.741
_cell_angle_beta 97.008
_cell_angle_gamma 100.523
_space_group_name_H-M_alt 'P 1'
_space_group_name_Hall 'P 1'
loop_
    _symmetry_equiv_pos_as_xyz
    x,y,z
loop_
    _atom_site_label
    _atom_site_type_symbol
    _atom_site_fract_x
    _atom_site_fract_y
    _atom_site_fract_z
    _atom_site_occupancy
    Gd1      Gd       0.03334    0.18963    0.23674    1.000
    Gd2      Gd       0.52029    0.13507    0.29528    1.000
    C1       C        0.27590    0.20730    0.41010    1.000
    C2       C        0.18410    0.19620    0.47840    1.000
    C3       C        0.21890    0.11210    0.52870    1.000
    H1       H        0.30360    0.06720    0.52190    1.000
    C4       C        0.12870    0.09400    0.58940    1.000
    C5       C        0.00460    0.16270    0.59870    1.000
    H2       H        0.94230    0.15060    0.63870    1.000
    C6       C        0.97170    0.24810    0.55020    1.000
    H3       H        0.88890    0.29470    0.55800    1.000
    C7       C        0.06070    0.26590    0.48960    1.000
    H4       H        0.03800    0.32410    0.45670    1.000
    C8       C        0.16410    0.99860    0.64160    1.000
    C9       C        0.33950    0.22710    0.14020    1.000
    C10      C        0.41630    0.20240    0.06820    1.000
    C11      C        0.32750    0.12000    0.00070    1.000
    H5       H        0.21760    0.08190    0.99980    1.000
    C12      C        0.40150    0.09410    0.93480    1.000
    C13      C        0.56570    0.15390    0.93680    1.000
    H6       H        0.61570    0.13870    0.89250    1.000
    C14      C        0.65430    0.23470    0.00330    1.000
    H7       H        0.76400    0.27330    0.00400    1.000
    C15      C        0.58030    0.25900    0.06920    1.000
    H8       H        0.64070    0.31340    0.11430    1.000
    C16      C        0.31320    0.00140    0.86310    1.000
    C17      C        0.02650    0.43860    0.19400    1.000
    C18      C        0.02740    0.56960    0.17090    1.000
    C19      C        0.12260    0.68300    0.21760    1.000
    H9       H        0.18440    0.67790    0.26460    1.000
    C20      C        0.12640    0.80470    0.19470    1.000
    C21      C        0.03300    0.81210    0.12480    1.000
    H10      H        0.03270    0.89300    0.10960    1.000
    C22      C        0.94020    0.69810    0.07750    1.000
    H11      H        0.88000    0.70310    0.03010    1.000
    C23      C        0.93580    0.57800    0.09970    1.000
    H12      H        0.87230    0.50250    0.06770    1.000
    C24      C        0.24050    0.92230    0.24240    1.000
    C25      C        0.78420    0.36740    0.33620    1.000
    H13      H        0.86600    0.44320    0.35060    1.000
    O1       O        0.22000    0.26130    0.35555    1.000
    O2       O        0.40280    0.16040    0.41014    1.000
    O3       O        0.06390    0.96940    0.68729    1.000
    O4       O        0.29190    0.95250    0.63458    1.000
    O5       O        0.18570    0.20880    0.13264    1.000
    O6       O        0.43370    0.26490    0.20630    1.000
    O7       O        0.16220    0.95450    0.85882    1.000
    O8       O        0.39730    0.97320    0.80983    1.000
    O9       O        0.12470    0.43160    0.25459    1.000
    O10      O        0.92960    0.33990    0.15591    1.000
    O11      O        0.36100    0.90800    0.28845    1.000
    O12      O        0.22390    0.03700    0.23258    1.000
    O13      O        0.64870    0.36710    0.35893    1.000
    O14      O        0.81420    0.27070    0.29500    1.000
    Gd3      Gd       0.96666    0.81037    0.76326    1.000
    Gd4      Gd       0.47971    0.86493    0.70472    1.000
    C26      C        0.72410    0.79270    0.58990    1.000
    C27      C        0.81590    0.80380    0.52160    1.000
    C28      C        0.78110    0.88790    0.47130    1.000
    H14      H        0.69640    0.93280    0.47810    1.000
    C29      C        0.87130    0.90600    0.41060    1.000
    C30      C        0.99540    0.83730    0.40130    1.000
    H15      H        0.05770    0.84940    0.36130    1.000
    C31      C        0.02830    0.75190    0.44980    1.000
    H16      H        0.11110    0.70530    0.44200    1.000
    C32      C        0.93930    0.73410    0.51040    1.000
    H17      H        0.96200    0.67590    0.54330    1.000
    C33      C        0.83590    0.00140    0.35840    1.000
    C34      C        0.66050    0.77290    0.85980    1.000
    C35      C        0.58370    0.79760    0.93180    1.000
    C36      C        0.67250    0.88000    0.99930    1.000
    H18      H        0.78240    0.91810    0.00020    1.000
    C37      C        0.59850    0.90590    0.06520    1.000
    C38      C        0.43430    0.84610    0.06320    1.000
    H19      H        0.38430    0.86130    0.10750    1.000
    C39      C        0.34570    0.76530    0.99670    1.000
    H20      H        0.23600    0.72670    0.99600    1.000
    C40      C        0.41970    0.74100    0.93080    1.000
    H21      H        0.35930    0.68660    0.88570    1.000
    C41      C        0.68680    0.99860    0.13690    1.000
    C42      C        0.97350    0.56140    0.80600    1.000
    C43      C        0.97260    0.43040    0.82910    1.000
    C44      C        0.87740    0.31700    0.78240    1.000
    H22      H        0.81560    0.32210    0.73540    1.000
    C45      C        0.87360    0.19530    0.80530    1.000
    C46      C        0.96700    0.18790    0.87520    1.000
    H23      H        0.96730    0.10700    0.89040    1.000
    C47      C        0.05980    0.30190    0.92250    1.000
    H24      H        0.12000    0.29690    0.96990    1.000
    C48      C        0.06420    0.42200    0.90030    1.000
    H25      H        0.12770    0.49750    0.93230    1.000
    C49      C        0.75950    0.07770    0.75760    1.000
    C50      C        0.21580    0.63260    0.66380    1.000
    H26      H        0.13400    0.55680    0.64940    1.000
    O15      O        0.78000    0.73870    0.64445    1.000
    O16      O        0.59720    0.83960    0.58986    1.000
    O17      O        0.93610    0.03060    0.31271    1.000
    O18      O        0.70810    0.04750    0.36542    1.000
    O19      O        0.81430    0.79120    0.86736    1.000
    O20      O        0.56630    0.73510    0.79370    1.000
    O21      O        0.83780    0.04550    0.14118    1.000
    O22      O        0.60270    0.02680    0.19017    1.000
    O23      O        0.87530    0.56840    0.74541    1.000
    O24      O        0.07040    0.66010    0.84409    1.000
    O25      O        0.63900    0.09200    0.71155    1.000
    O26      O        0.77610    0.96300    0.76742    1.000
    O27      O        0.35130    0.63290    0.64107    1.000
    O28      O        0.18580    0.72930    0.70500    1.000
