# CIF file generated by openbabel 3.1.0, see https://openbabel.org
data_I
_chemical_name_common 'image0'
_cell_length_a 10.4622
_cell_length_b 7.187
_cell_length_c 13.4544
_cell_angle_alpha 90
_cell_angle_beta 112.694
_cell_angle_gamma 90
_space_group_name_H-M_alt 'P 1'
_space_group_name_Hall 'P 1'
loop_
    _symmetry_equiv_pos_as_xyz
    x,y,z
loop_
    _atom_site_label
    _atom_site_type_symbol
    _atom_site_fract_x
    _atom_site_fract_y
    _atom_site_fract_z
    _atom_site_occupancy
    N1       N        0.13550    0.09640    0.26060    1.000
    N2       N        0.09640    0.15720    0.16180    1.000
    N3       N        0.86450    0.59640    0.73940    1.000
    N4       N        0.90360    0.65720    0.83820    1.000
    N5       N        0.86450    0.90360    0.73940    1.000
    N6       N        0.90360    0.84280    0.83820    1.000
    N7       N        0.13550    0.40360    0.26060    1.000
    N8       N        0.09640    0.34280    0.16180    1.000
    Cd1      Cd       0.85630    0.25000    0.72512    1.000
    O1       O        0.63500    0.25000    0.62260    1.000
    O2       O        0.60560    0.25000    0.77670    1.000
    O3       O        0.11430    0.25000    0.76270    1.000
    O4       O        0.94360    0.25000    0.60150    1.000
    O5       O        0.90250    0.25000    0.90240    1.000
    C1       C        0.56400    0.25000    0.67910    1.000
    C2       C        0.40780    0.25000    0.61450    1.000
    C3       C        0.35940    0.25000    0.50520    1.000
    H1       H        0.42150    0.25000    0.47100    1.000
    C4       C        0.21430    0.25000    0.44270    1.000
    C5       C        0.12640    0.25000    0.49300    1.000
    H2       H        0.03130    0.25000    0.45350    1.000
    C6       C        0.17960    0.25000    0.60800    1.000
    C7       C        0.31420    0.25000    0.66780    1.000
    H3       H        0.34640    0.25000    0.74260    1.000
    C8       C        0.07110    0.25000    0.65900    1.000
    C9       C        0.16390    0.25000    0.32260    1.000
    Cd2      Cd       0.14370    0.75000    0.27488    1.000
    O6       O        0.36500    0.75000    0.37740    1.000
    O7       O        0.39440    0.75000    0.22330    1.000
    O8       O        0.88570    0.75000    0.23730    1.000
    O9       O        0.05640    0.75000    0.39850    1.000
    O10      O        0.09750    0.75000    0.09760    1.000
    C10      C        0.43600    0.75000    0.32090    1.000
    C11      C        0.59220    0.75000    0.38550    1.000
    C12      C        0.64060    0.75000    0.49480    1.000
    H4       H        0.57850    0.75000    0.52900    1.000
    C13      C        0.78570    0.75000    0.55730    1.000
    C14      C        0.87360    0.75000    0.50700    1.000
    H5       H        0.96870    0.75000    0.54650    1.000
    C15      C        0.82040    0.75000    0.39200    1.000
    C16      C        0.68580    0.75000    0.33220    1.000
    H6       H        0.65360    0.75000    0.25740    1.000
    C17      C        0.92890    0.75000    0.34100    1.000
    C18      C        0.83610    0.75000    0.67740    1.000
    Cd3      Cd       0.00000    0.00000    0.00000    1.000
    Cd4      Cd       0.00000    0.50000    0.00000    1.000
