# CIF file generated by openbabel 3.1.0, see https://openbabel.org
data_I
_chemical_name_common 'image0'
_cell_length_a 7.3742
_cell_length_b 11.4011
_cell_length_c 11.6706
_cell_angle_alpha 89.666
_cell_angle_beta 76.813
_cell_angle_gamma 74.971
_space_group_name_H-M_alt 'P 1'
_space_group_name_Hall 'P 1'
loop_
    _symmetry_equiv_pos_as_xyz
    x,y,z
loop_
    _atom_site_label
    _atom_site_type_symbol
    _atom_site_fract_x
    _atom_site_fract_y
    _atom_site_fract_z
    _atom_site_occupancy
    Mg1      Mg       0.54122    0.14697    0.67436    1.000
    Mg2      Mg       0.68751    0.13197    0.36399    1.000
    O1       O        0.32640    0.25246    0.60626    1.000
    O2       O        0.39710    0.22060    0.41132    1.000
    O3       O        0.00250    0.17899    0.51094    1.000
    O4       O        0.77400    0.27349    0.41980    1.000
    O5       O        0.97798    0.02162    0.32188    1.000
    O6       O        0.27420    0.92782    0.22082    1.000
    O7       O        0.32210    0.16767    0.83765    1.000
    O8       O        0.36635    0.00991    0.71957    1.000
    O9       O        0.70107    0.05109    0.52381    1.000
    H1       H        0.65990    0.97630    0.52080    1.000
    C1       C        0.29840    0.27715    0.50623    1.000
    C2       C        0.13950    0.39039    0.50154    1.000
    C3       C        0.17860    0.50135    0.51597    1.000
    H2       H        0.29930    0.50230    0.52680    1.000
    C4       C        0.95790    0.38894    0.48529    1.000
    C5       C        0.90720    0.27101    0.47119    1.000
    C6       C        0.10060    0.97862    0.22770    1.000
    C7       C        0.03870    0.99074    0.11257    1.000
    C8       C        0.16400    0.02480    0.01798    1.000
    H3       H        0.27490    0.04190    0.03030    1.000
    C9       C        0.12880    0.03399    0.90564    1.000
    C10      C        0.27840    0.07364    0.81431    1.000
    Mg3      Mg       0.45878    0.85303    0.32564    1.000
    Mg4      Mg       0.31249    0.86803    0.63601    1.000
    O10      O        0.67360    0.74754    0.39374    1.000
    O11      O        0.60290    0.77940    0.58868    1.000
    O12      O        0.99750    0.82101    0.48906    1.000
    O13      O        0.22600    0.72651    0.58020    1.000
    O14      O        0.02202    0.97838    0.67812    1.000
    O15      O        0.72580    0.07218    0.77918    1.000
    O16      O        0.67790    0.83233    0.16235    1.000
    O17      O        0.63365    0.99009    0.28043    1.000
    O18      O        0.29893    0.94891    0.47619    1.000
    H4       H        0.34010    0.02370    0.47920    1.000
    C11      C        0.70160    0.72285    0.49377    1.000
    C12      C        0.86050    0.60961    0.49846    1.000
    C13      C        0.82140    0.49865    0.48403    1.000
    H5       H        0.70070    0.49770    0.47320    1.000
    C14      C        0.04210    0.61106    0.51471    1.000
    C15      C        0.09280    0.72899    0.52881    1.000
    C16      C        0.89940    0.02138    0.77230    1.000
    C17      C        0.96130    0.00926    0.88743    1.000
    C18      C        0.83600    0.97520    0.98202    1.000
    H6       H        0.72510    0.95810    0.96970    1.000
    C19      C        0.87120    0.96601    0.09436    1.000
    C20      C        0.72160    0.92636    0.18569    1.000
    Mg5      Mg       0.00000    0.00000    0.50000    1.000
