# CIF file generated by openbabel 3.1.0, see https://openbabel.org
data_I
_chemical_name_common 'UBOGAV_clean'
_cell_length_a 9.595
_cell_length_b 10.33
_cell_length_c 13.67
_cell_angle_alpha 75.702
_cell_angle_beta 88.854
_cell_angle_gamma 65.345
_space_group_name_H-M_alt 'P 1'
_space_group_name_Hall 'P 1'
loop_
    _symmetry_equiv_pos_as_xyz
    x,y,z
loop_
    _atom_site_label
    _atom_site_type_symbol
    _atom_site_fract_x
    _atom_site_fract_y
    _atom_site_fract_z
    _atom_site_occupancy
    U1       U        0.76581    0.55021    0.99948    1.000
    U2       U        0.23419    0.44979    0.00052    1.000
    U3       U        0.00000    0.00000    0.00000    1.000
    Cu1      Cu       0.90208    0.03481    0.42043    1.000
    Cu2      Cu       0.09792    0.96519    0.57957    1.000
    P1       P        0.62560    0.31710    0.91340    1.000
    P2       P        0.91020    0.68860    0.12475    1.000
    P3       P        0.37440    0.68290    0.08660    1.000
    P4       P        0.08980    0.31140    0.87525    1.000
    H1       H        0.76830    0.14830    0.77260    1.000
    H2       H        0.47980    0.34570    0.51480    1.000
    H3       H        0.30350    0.51630    0.59660    1.000
    H4       H        0.36860    0.50620    0.76180    1.000
    H5       H        0.93940    0.41600    0.25560    1.000
    H6       H        0.19970    0.35420    0.50560    1.000
    H7       H        0.20160    0.58380    0.43780    1.000
    H8       H        0.07450    0.73090    0.28080    1.000
    H9       H        0.23170    0.85170    0.22740    1.000
    H10      H        0.52020    0.65430    0.48520    1.000
    H11      H        0.69650    0.48370    0.40340    1.000
    H12      H        0.63140    0.49380    0.23820    1.000
    H13      H        0.06060    0.58400    0.74440    1.000
    H14      H        0.80030    0.64580    0.49440    1.000
    H15      H        0.79840    0.41620    0.56220    1.000
    H16      H        0.92550    0.26910    0.71920    1.000
    C1       C        0.57260    0.32290    0.78600    1.000
    C2       C        0.67470    0.22420    0.73680    1.000
    C3       C        0.64110    0.23540    0.63450    1.000
    C4       C        0.50420    0.34090    0.58300    1.000
    C5       C        0.39900    0.44280    0.63170    1.000
    C6       C        0.43680    0.43430    0.73050    1.000
    C7       C        0.76470    0.14370    0.58180    1.000
    C8       C        0.99160    0.58710    0.25280    1.000
    C9       C        0.99030    0.45170    0.29380    1.000
    C10      C        0.06110    0.36690    0.38920    1.000
    C11      C        0.14450    0.41440    0.44180    1.000
    C12      C        0.14680    0.55050    0.40060    1.000
    C13      C        0.07220    0.63790    0.30780    1.000
    C14      C        0.04130    0.22820    0.43470    1.000
    C15      C        0.42740    0.67710    0.21400    1.000
    C16      C        0.32530    0.77580    0.26320    1.000
    C17      C        0.35890    0.76460    0.36550    1.000
    C18      C        0.49580    0.65910    0.41700    1.000
    C19      C        0.60100    0.55720    0.36830    1.000
    C20      C        0.56320    0.56570    0.26950    1.000
    C21      C        0.23530    0.85630    0.41820    1.000
    C22      C        0.00840    0.41290    0.74720    1.000
    C23      C        0.00970    0.54830    0.70620    1.000
    C24      C        0.93890    0.63310    0.61080    1.000
    C25      C        0.85550    0.58560    0.55820    1.000
    C26      C        0.85320    0.44950    0.59940    1.000
    C27      C        0.92780    0.36210    0.69220    1.000
    C28      C        0.95870    0.77180    0.56530    1.000
    O1       O        0.68720    0.43390    0.90340    1.000
    O2       O        0.74730    0.16070    0.95860    1.000
    O3       O        0.48840    0.34590    0.97490    1.000
    O4       O        0.74390    0.71130    0.11100    1.000
    O5       O        0.99390    0.58790    0.05420    1.000
    O6       O        0.92870    0.83260    0.10270    1.000
    O7       O        0.72970    0.13680    0.49380    1.000
    O8       O        0.90120    0.07900    0.62650    1.000
    O9       O        0.12250    0.14600    0.51730    1.000
    O10      O        0.94630    0.20650    0.38830    1.000
    O11      O        0.31280    0.56610    0.09660    1.000
    O12      O        0.25270    0.83930    0.04140    1.000
    O13      O        0.51160    0.65410    0.02510    1.000
    O14      O        0.25610    0.28870    0.88900    1.000
    O15      O        0.00610    0.41210    0.94580    1.000
    O16      O        0.07130    0.16740    0.89730    1.000
    O17      O        0.27030    0.86320    0.50620    1.000
    O18      O        0.09880    0.92100    0.37350    1.000
    O19      O        0.87750    0.85400    0.48270    1.000
    O20      O        0.05370    0.79350    0.61170    1.000
