# CIF file generated by openbabel 3.1.0, see https://openbabel.org
data_I
_chemical_name_common 'image0'
_cell_length_a 11.112
_cell_length_b 11.112
_cell_length_c 10.04
_cell_angle_alpha 90
_cell_angle_beta 90
_cell_angle_gamma 120
_space_group_name_H-M_alt 'P 1'
_space_group_name_Hall 'P 1'
loop_
    _symmetry_equiv_pos_as_xyz
    x,y,z
loop_
    _atom_site_label
    _atom_site_type_symbol
    _atom_site_fract_x
    _atom_site_fract_y
    _atom_site_fract_z
    _atom_site_occupancy
    V1       V        0.49208    0.06352    0.02786    1.000
    P1       P        0.22218    0.81621    0.89850    1.000
    K1       K        0.77202    0.30682    0.75267    1.000
    O1       O        0.29070    0.95180    0.97730    1.000
    O2       O        0.46830    0.10510    0.17330    1.000
    O3       O        0.19220    0.69440    0.98990    1.000
    O4       O        0.31440    0.81770    0.78680    1.000
    O5       O        0.50470    0.92420    0.04410    1.000
    C1       C        0.06430    0.79600    0.83530    1.000
    H1       H        0.01000    0.80600    0.88800    1.000
    H2       H        0.07100    0.85100    0.75900    1.000
    H3       H        0.02200    0.72000    0.77700    1.000
    V2       V        0.93648    0.42856    0.36119    1.000
    P2       P        0.18379    0.40597    0.23183    1.000
    K2       K        0.69318    0.46520    0.08600    1.000
    O6       O        0.04820    0.33890    0.31063    1.000
    O7       O        0.89490    0.36320    0.50663    1.000
    O8       O        0.30560    0.49780    0.32323    1.000
    O9       O        0.18230    0.49670    0.12013    1.000
    O10      O        0.07580    0.58050    0.37743    1.000
    C2       C        0.20400    0.26830    0.16863    1.000
    H4       H        0.19400    0.20400    0.22133    1.000
    H5       H        0.14900    0.22000    0.09233    1.000
    H6       H        0.28000    0.30200    0.11033    1.000
    V3       V        0.57144    0.50792    0.69453    1.000
    P3       P        0.59403    0.77782    0.56517    1.000
    K3       K        0.53480    0.22798    0.41934    1.000
    O11      O        0.66110    0.70930    0.64397    1.000
    O12      O        0.63680    0.53170    0.83997    1.000
    O13      O        0.50220    0.80780    0.65657    1.000
    O14      O        0.50330    0.68560    0.45347    1.000
    O15      O        0.41950    0.49530    0.71077    1.000
    C3       C        0.73170    0.93570    0.50197    1.000
    H7       H        0.79600    0.99000    0.55467    1.000
    H8       H        0.78000    0.92900    0.42567    1.000
    H9       H        0.69800    0.97800    0.44367    1.000
    V4       V        0.06352    0.49208    0.97214    1.000
    P4       P        0.81621    0.22218    0.10150    1.000
    K4       K        0.30682    0.77202    0.24733    1.000
    O16      O        0.95180    0.29070    0.02270    1.000
    O17      O        0.10510    0.46830    0.82670    1.000
    O18      O        0.69440    0.19220    0.01010    1.000
    O19      O        0.81770    0.31440    0.21320    1.000
    O20      O        0.92420    0.50470    0.95590    1.000
    C4       C        0.79600    0.06430    0.16470    1.000
    H10      H        0.80600    0.01000    0.11200    1.000
    H11      H        0.85100    0.07100    0.24100    1.000
    H12      H        0.72000    0.02200    0.22300    1.000
    V5       V        0.42856    0.93648    0.63881    1.000
    P5       P        0.40597    0.18379    0.76817    1.000
    K5       K        0.46520    0.69318    0.91400    1.000
    O21      O        0.33890    0.04820    0.68937    1.000
    O22      O        0.36320    0.89490    0.49337    1.000
    O23      O        0.49780    0.30560    0.67677    1.000
    O24      O        0.49670    0.18230    0.87987    1.000
    O25      O        0.58050    0.07580    0.62257    1.000
    C5       C        0.26830    0.20400    0.83137    1.000
    H13      H        0.20400    0.19400    0.77867    1.000
    H14      H        0.22000    0.14900    0.90767    1.000
    H15      H        0.30200    0.28000    0.88967    1.000
    V6       V        0.50792    0.57144    0.30547    1.000
    P6       P        0.77782    0.59403    0.43483    1.000
    K6       K        0.22798    0.53480    0.58066    1.000
    O26      O        0.70930    0.66110    0.35603    1.000
    O27      O        0.53170    0.63680    0.16003    1.000
    O28      O        0.80780    0.50220    0.34343    1.000
    O29      O        0.68560    0.50330    0.54653    1.000
    O30      O        0.49530    0.41950    0.28923    1.000
    C6       C        0.93570    0.73170    0.49803    1.000
    H16      H        0.99000    0.79600    0.44533    1.000
    H17      H        0.92900    0.78000    0.57433    1.000
    H18      H        0.97800    0.69800    0.55633    1.000
