# CIF file generated by openbabel 3.1.0, see https://openbabel.org
data_I
_chemical_name_common 'image0'
_cell_length_a 17.1017
_cell_length_b 13.7034
_cell_length_c 10.0254
_cell_angle_alpha 90
_cell_angle_beta 105.429
_cell_angle_gamma 90
_space_group_name_H-M_alt 'P 1'
_space_group_name_Hall 'P 1'
loop_
    _symmetry_equiv_pos_as_xyz
    x,y,z
loop_
    _atom_site_label
    _atom_site_type_symbol
    _atom_site_fract_x
    _atom_site_fract_y
    _atom_site_fract_z
    _atom_site_occupancy
    Zn1      Zn       0.02874    0.11544    0.60296    1.000
    Zn2      Zn       0.52280    0.39908    0.75680    1.000
    O1       O        0.60090    0.49730    0.55300    1.000
    O2       O        0.64000    0.41210    0.75000    1.000
    O3       O        0.76760    0.33900    0.67450    1.000
    O4       O        0.87970    0.19910    0.78230    1.000
    O5       O        0.93600    0.21920    0.60390    1.000
    O6       O        0.02780    0.16910    0.42030    1.000
    C1       C        0.64890    0.44100    0.63610    1.000
    C2       C        0.71950    0.40780    0.59300    1.000
    C3       C        0.74600    0.42640    0.47880    1.000
    H1       H        0.72350    0.46960    0.40740    1.000
    C4       C        0.81560    0.36550    0.49140    1.000
    H2       H        0.84790    0.36210    0.43010    1.000
    C5       C        0.82540    0.31390    0.60950    1.000
    C6       C        0.88590    0.23750    0.67130    1.000
    Zn3      Zn       0.52874    0.61544    0.60296    1.000
    Zn4      Zn       0.02280    0.89908    0.75680    1.000
    O7       O        0.10090    0.99730    0.55300    1.000
    O8       O        0.14000    0.91210    0.75000    1.000
    O9       O        0.26760    0.83900    0.67450    1.000
    O10      O        0.37970    0.69910    0.78230    1.000
    O11      O        0.43600    0.71920    0.60390    1.000
    O12      O        0.52780    0.66910    0.42030    1.000
    C7       C        0.14890    0.94100    0.63610    1.000
    C8       C        0.21950    0.90780    0.59300    1.000
    C9       C        0.24600    0.92640    0.47880    1.000
    H3       H        0.22350    0.96960    0.40740    1.000
    C10      C        0.31560    0.86550    0.49140    1.000
    H4       H        0.34790    0.86210    0.43010    1.000
    C11      C        0.32540    0.81390    0.60950    1.000
    C12      C        0.38590    0.73750    0.67130    1.000
    Zn5      Zn       0.97126    0.11544    0.89704    1.000
    Zn6      Zn       0.47720    0.39908    0.74320    1.000
    O13      O        0.39910    0.49730    0.94700    1.000
    O14      O        0.36000    0.41210    0.75000    1.000
    O15      O        0.23240    0.33900    0.82550    1.000
    O16      O        0.12030    0.19910    0.71770    1.000
    O17      O        0.06400    0.21920    0.89610    1.000
    O18      O        0.97220    0.16910    0.07970    1.000
    C13      C        0.35110    0.44100    0.86390    1.000
    C14      C        0.28050    0.40780    0.90700    1.000
    C15      C        0.25400    0.42640    0.02120    1.000
    H5       H        0.27650    0.46960    0.09260    1.000
    C16      C        0.18440    0.36550    0.00860    1.000
    H6       H        0.15210    0.36210    0.06990    1.000
    C17      C        0.17460    0.31390    0.89050    1.000
    C18      C        0.11410    0.23750    0.82870    1.000
    Zn7      Zn       0.47126    0.61544    0.89704    1.000
    Zn8      Zn       0.97720    0.89908    0.74320    1.000
    O19      O        0.89910    0.99730    0.94700    1.000
    O20      O        0.86000    0.91210    0.75000    1.000
    O21      O        0.73240    0.83900    0.82550    1.000
    O22      O        0.62030    0.69910    0.71770    1.000
    O23      O        0.56400    0.71920    0.89610    1.000
    O24      O        0.47220    0.66910    0.07970    1.000
    C19      C        0.85110    0.94100    0.86390    1.000
    C20      C        0.78050    0.90780    0.90700    1.000
    C21      C        0.75400    0.92640    0.02120    1.000
    H7       H        0.77650    0.96960    0.09260    1.000
    C22      C        0.68440    0.86550    0.00860    1.000
    H8       H        0.65210    0.86210    0.06990    1.000
    C23      C        0.67460    0.81390    0.89050    1.000
    C24      C        0.61410    0.73750    0.82870    1.000
    Zn9      Zn       0.97126    0.88456    0.39704    1.000
    Zn10     Zn       0.47720    0.60092    0.24320    1.000
    O25      O        0.39910    0.50270    0.44700    1.000
    O26      O        0.36000    0.58790    0.25000    1.000
    O27      O        0.23240    0.66100    0.32550    1.000
    O28      O        0.12030    0.80090    0.21770    1.000
    O29      O        0.06400    0.78080    0.39610    1.000
    O30      O        0.97220    0.83090    0.57970    1.000
    C25      C        0.35110    0.55900    0.36390    1.000
    C26      C        0.28050    0.59220    0.40700    1.000
    C27      C        0.25400    0.57360    0.52120    1.000
    H9       H        0.27650    0.53040    0.59260    1.000
    C28      C        0.18440    0.63450    0.50860    1.000
    H10      H        0.15210    0.63790    0.56990    1.000
    C29      C        0.17460    0.68610    0.39050    1.000
    C30      C        0.11410    0.76250    0.32870    1.000
    Zn11     Zn       0.47126    0.38456    0.39704    1.000
    Zn12     Zn       0.97720    0.10092    0.24320    1.000
    O31      O        0.89910    0.00270    0.44700    1.000
    O32      O        0.86000    0.08790    0.25000    1.000
    O33      O        0.73240    0.16100    0.32550    1.000
    O34      O        0.62030    0.30090    0.21770    1.000
    O35      O        0.56400    0.28080    0.39610    1.000
    O36      O        0.47220    0.33090    0.57970    1.000
    C31      C        0.85110    0.05900    0.36390    1.000
    C32      C        0.78050    0.09220    0.40700    1.000
    C33      C        0.75400    0.07360    0.52120    1.000
    H11      H        0.77650    0.03040    0.59260    1.000
    C34      C        0.68440    0.13450    0.50860    1.000
    H12      H        0.65210    0.13790    0.56990    1.000
    C35      C        0.67460    0.18610    0.39050    1.000
    C36      C        0.61410    0.26250    0.32870    1.000
    Zn13     Zn       0.02874    0.88456    0.10296    1.000
    Zn14     Zn       0.52280    0.60092    0.25680    1.000
    O37      O        0.60090    0.50270    0.05300    1.000
    O38      O        0.64000    0.58790    0.25000    1.000
    O39      O        0.76760    0.66100    0.17450    1.000
    O40      O        0.87970    0.80090    0.28230    1.000
    O41      O        0.93600    0.78080    0.10390    1.000
    O42      O        0.02780    0.83090    0.92030    1.000
    C37      C        0.64890    0.55900    0.13610    1.000
    C38      C        0.71950    0.59220    0.09300    1.000
    C39      C        0.74600    0.57360    0.97880    1.000
    H13      H        0.72350    0.53040    0.90740    1.000
    C40      C        0.81560    0.63450    0.99140    1.000
    H14      H        0.84790    0.63790    0.93010    1.000
    C41      C        0.82540    0.68610    0.10950    1.000
    C42      C        0.88590    0.76250    0.17130    1.000
    Zn15     Zn       0.52874    0.38456    0.10296    1.000
    Zn16     Zn       0.02280    0.10092    0.25680    1.000
    O43      O        0.10090    0.00270    0.05300    1.000
    O44      O        0.14000    0.08790    0.25000    1.000
    O45      O        0.26760    0.16100    0.17450    1.000
    O46      O        0.37970    0.30090    0.28230    1.000
    O47      O        0.43600    0.28080    0.10390    1.000
    O48      O        0.52780    0.33090    0.92030    1.000
    C43      C        0.14890    0.05900    0.13610    1.000
    C44      C        0.21950    0.09220    0.09300    1.000
    C45      C        0.24600    0.07360    0.97880    1.000
    H15      H        0.22350    0.03040    0.90740    1.000
    C46      C        0.31560    0.13450    0.99140    1.000
    H16      H        0.34790    0.13790    0.93010    1.000
    C47      C        0.32540    0.18610    0.10950    1.000
    C48      C        0.38590    0.26250    0.17130    1.000
    O49      O        0.00000    0.03610    0.75000    1.000
    O50      O        0.50000    0.53610    0.75000    1.000
    O51      O        0.00000    0.96390    0.25000    1.000
    O52      O        0.50000    0.46390    0.25000    1.000
