# CIF file generated by openbabel 3.1.0, see https://openbabel.org
data_I
_chemical_name_common 'image0'
_cell_length_a 10.887
_cell_length_b 10.923
_cell_length_c 14.068
_cell_angle_alpha 89.214
_cell_angle_beta 87.59
_cell_angle_gamma 79.816
_space_group_name_H-M_alt 'P 1'
_space_group_name_Hall 'P 1'
loop_
    _symmetry_equiv_pos_as_xyz
    x,y,z
loop_
    _atom_site_label
    _atom_site_type_symbol
    _atom_site_fract_x
    _atom_site_fract_y
    _atom_site_fract_z
    _atom_site_occupancy
    Zn1      Zn       0.21780    0.33787    0.29980    1.000
    Zn2      Zn       0.22961    0.33953    0.09010    1.000
    O1       O        0.40100    0.32640    0.26600    1.000
    O2       O        0.41370    0.32720    0.10880    1.000
    O3       O        0.03520    0.34740    0.27400    1.000
    O4       O        0.04340    0.35380    0.11690    1.000
    O5       O        0.19900    0.52290    0.27400    1.000
    O6       O        0.21340    0.52590    0.11770    1.000
    O7       O        0.23670    0.15290    0.28100    1.000
    O8       O        0.24440    0.15470    0.12360    1.000
    N1       N        0.22130    0.34020    0.44340    1.000
    N2       N        0.23140    0.33320    0.94550    1.000
    C1       C        0.45960    0.32840    0.18830    1.000
    C2       C        0.59740    0.33270    0.19030    1.000
    C3       C        0.66250    0.36040    0.10820    1.000
    C4       C        0.65950    0.31310    0.27530    1.000
    C5       C        0.78540    0.31960    0.27730    1.000
    C6       C        0.78850    0.36570    0.11050    1.000
    C7       C        0.85040    0.34430    0.19420    1.000
    C8       C        0.98740    0.34900    0.19590    1.000
    C9       C        0.21150    0.57600    0.19740    1.000
    C10      C        0.22210    0.71190    0.19900    1.000
    C11      C        0.27680    0.76010    0.28110    1.000
    C12      C        0.22900    0.76820    0.27410    1.000
    C13      C        0.24500    0.77330    0.11790    1.000
    C14      C        0.17730    0.79050    0.12570    1.000
    C15      C        0.24800    0.90500    0.11950    1.000
    C16      C        0.18480    0.91400    0.12820    1.000
    C17      C        0.28600    0.88300    0.27680    1.000
    C18      C        0.23100    0.90010    0.28050    1.000
    C19      C        0.23790    0.96410    0.20200    1.000
    C20      C        0.32800    0.67500    0.35730    1.000
    C21      C        0.33800    0.92800    0.36500    1.000
    C22      C        0.30710    0.25880    0.48870    1.000
    C23      C        0.14640    0.42220    0.59450    1.000
    C24      C        0.12620    0.31200    0.59830    1.000
    C25      C        0.15000    0.42430    0.49570    1.000
    C26      C        0.31510    0.25420    0.58540    1.000
    C27      C        0.12790    0.31200    0.49820    1.000
    C28      C        0.31900    0.35400    0.58910    1.000
    C29      C        0.31110    0.35800    0.48730    1.000
    C30      C        0.22780    0.33700    0.64170    1.000
    C31      C        0.23050    0.33410    0.74670    1.000
    C32      C        0.12020    0.34780    0.80180    1.000
    C33      C        0.34300    0.31810    0.79340    1.000
    C34      C        0.12480    0.34750    0.89940    1.000
    C35      C        0.33820    0.31900    0.89200    1.000
    C36      C        0.24020    0.10120    0.20220    1.000
    H1       H        0.61540    0.29530    0.33200    1.000
    H2       H        0.62050    0.37590    0.05020    1.000
    H3       H        0.83260    0.38430    0.05400    1.000
    H4       H        0.82720    0.30710    0.33560    1.000
    H5       H        0.04210    0.35740    0.77240    1.000
    H6       H        0.42070    0.30700    0.75850    1.000
    H7       H        0.04830    0.35790    0.93590    1.000
    H8       H        0.41470    0.30890    0.92360    1.000
    Zn3      Zn       0.78220    0.66213    0.70020    1.000
    Zn4      Zn       0.77039    0.66047    0.90990    1.000
    O9       O        0.59900    0.67360    0.73400    1.000
    O10      O        0.58630    0.67280    0.89120    1.000
    O11      O        0.96480    0.65260    0.72600    1.000
    O12      O        0.95660    0.64620    0.88310    1.000
    O13      O        0.80100    0.47710    0.72600    1.000
    O14      O        0.78660    0.47410    0.88230    1.000
    O15      O        0.76330    0.84710    0.71900    1.000
    O16      O        0.75560    0.84530    0.87640    1.000
    N3       N        0.77870    0.65980    0.55660    1.000
    N4       N        0.76860    0.66680    0.05450    1.000
    C37      C        0.54040    0.67160    0.81170    1.000
    C38      C        0.40260    0.66730    0.80970    1.000
    C39      C        0.33750    0.63960    0.89180    1.000
    C40      C        0.34050    0.68690    0.72470    1.000
    C41      C        0.21460    0.68040    0.72270    1.000
    C42      C        0.21150    0.63430    0.88950    1.000
    C43      C        0.14960    0.65570    0.80580    1.000
    C44      C        0.01260    0.65100    0.80410    1.000
    C45      C        0.78850    0.42400    0.80260    1.000
    C46      C        0.77790    0.28810    0.80100    1.000
    C47      C        0.72320    0.23990    0.71890    1.000
    C48      C        0.77100    0.23180    0.72590    1.000
    C49      C        0.75500    0.22670    0.88210    1.000
    C50      C        0.82270    0.20950    0.87430    1.000
    C51      C        0.75200    0.09500    0.88050    1.000
    C52      C        0.81520    0.08600    0.87180    1.000
    C53      C        0.71400    0.11700    0.72320    1.000
    C54      C        0.76900    0.09990    0.71950    1.000
    C55      C        0.76210    0.03590    0.79800    1.000
    C56      C        0.67200    0.32500    0.64270    1.000
    C57      C        0.66200    0.07200    0.63500    1.000
    C58      C        0.69290    0.74120    0.51130    1.000
    C59      C        0.85360    0.57780    0.40550    1.000
    C60      C        0.87380    0.68800    0.40170    1.000
    C61      C        0.85000    0.57570    0.50430    1.000
    C62      C        0.68490    0.74580    0.41460    1.000
    C63      C        0.87210    0.68800    0.50180    1.000
    C64      C        0.68100    0.64600    0.41090    1.000
    C65      C        0.68890    0.64200    0.51270    1.000
    C66      C        0.77220    0.66300    0.35830    1.000
    C67      C        0.76950    0.66590    0.25330    1.000
    C68      C        0.87980    0.65220    0.19820    1.000
    C69      C        0.65700    0.68190    0.20660    1.000
    C70      C        0.87520    0.65250    0.10060    1.000
    C71      C        0.66180    0.68100    0.10800    1.000
    C72      C        0.75980    0.89880    0.79780    1.000
    H9       H        0.38460    0.70470    0.66800    1.000
    H10      H        0.37950    0.62410    0.94980    1.000
    H11      H        0.16740    0.61570    0.94600    1.000
    H12      H        0.17280    0.69290    0.66440    1.000
    H13      H        0.95790    0.64260    0.22760    1.000
    H14      H        0.57930    0.69300    0.24150    1.000
    H15      H        0.95170    0.64210    0.06410    1.000
    H16      H        0.58530    0.69110    0.07640    1.000
