# CIF file generated by openbabel 3.1.0, see https://openbabel.org
data_I
_chemical_name_common 'image0'
_cell_length_a 8.407
_cell_length_b 10.28
_cell_length_c 17.655
_cell_angle_alpha 90
_cell_angle_beta 102.8
_cell_angle_gamma 90
_space_group_name_H-M_alt 'P 1'
_space_group_name_Hall 'P 1'
loop_
    _symmetry_equiv_pos_as_xyz
    x,y,z
loop_
    _atom_site_label
    _atom_site_type_symbol
    _atom_site_fract_x
    _atom_site_fract_y
    _atom_site_fract_z
    _atom_site_occupancy
    N1       N        0.16660    0.57290    0.45100    1.000
    O1       O        0.46980    0.28550    0.44375    1.000
    O2       O        0.42010    0.39150    0.54183    1.000
    C1       C        0.48480    0.29370    0.51600    1.000
    C2       C        0.96250    0.73130    0.40520    1.000
    H1       H        0.89300    0.77140    0.36340    1.000
    C3       C        0.16510    0.60830    0.52400    1.000
    H2       H        0.23350    0.56520    0.56490    1.000
    C4       C        0.06630    0.70570    0.54060    1.000
    H3       H        0.06940    0.72860    0.59180    1.000
    C5       C        0.57670    0.19530    0.56970    1.000
    C6       C        0.58760    0.20470    0.64910    1.000
    H4       H        0.53580    0.27200    0.66940    1.000
    Cu1      Cu       0.82566    0.05718    0.93193    1.000
    O3       O        0.79060    0.03600    0.82336    1.000
    O4       O        0.61990    0.20320    0.81307    1.000
    C7       C        0.69370    0.12110    0.78390    1.000
    C8       C        0.75360    0.01290    0.66650    1.000
    H5       H        0.81330    0.95110    0.69950    1.000
    N2       N        0.82520    0.89900    0.56130    1.000
    C9       C        0.06490    0.63460    0.39270    1.000
    H6       H        0.06420    0.61050    0.34190    1.000
    C10      C        0.65270    0.09510    0.53750    1.000
    H7       H        0.64290    0.08940    0.48410    1.000
    C11      C        0.67690    0.11230    0.69760    1.000
    O5       O        0.81250    0.95920    0.43678    1.000
    C12      C        0.85890    0.88490    0.49090    1.000
    C13      C        0.74350    0.00380    0.58760    1.000
    C14      C        0.96230    0.76960    0.48040    1.000
    H8       H        0.86000    0.84500    0.59200    1.000
    N3       N        0.66660    0.92710    0.95100    1.000
    O6       O        0.96980    0.21450    0.94375    1.000
    O7       O        0.92010    0.10850    0.04183    1.000
    C15      C        0.98480    0.20630    0.01600    1.000
    C16      C        0.46250    0.76870    0.90520    1.000
    H9       H        0.39300    0.72860    0.86340    1.000
    C17      C        0.66510    0.89170    0.02400    1.000
    H10      H        0.73350    0.93480    0.06490    1.000
    C18      C        0.56630    0.79430    0.04060    1.000
    H11      H        0.56940    0.77140    0.09180    1.000
    C19      C        0.07670    0.30470    0.06970    1.000
    C20      C        0.08760    0.29530    0.14910    1.000
    H12      H        0.03580    0.22800    0.16940    1.000
    Cu2      Cu       0.32566    0.44282    0.43193    1.000
    O8       O        0.29060    0.46400    0.32336    1.000
    O9       O        0.11990    0.29680    0.31307    1.000
    C21      C        0.19370    0.37890    0.28390    1.000
    C22      C        0.25360    0.48710    0.16650    1.000
    H13      H        0.31330    0.54890    0.19950    1.000
    N4       N        0.32520    0.60100    0.06130    1.000
    C23      C        0.56490    0.86540    0.89270    1.000
    H14      H        0.56420    0.88950    0.84190    1.000
    C24      C        0.15270    0.40490    0.03750    1.000
    H15      H        0.14290    0.41060    0.98410    1.000
    C25      C        0.17690    0.38770    0.19760    1.000
    O10      O        0.31250    0.54080    0.93678    1.000
    C26      C        0.35890    0.61510    0.99090    1.000
    C27      C        0.24350    0.49620    0.08760    1.000
    C28      C        0.46230    0.73040    0.98040    1.000
    H16      H        0.36000    0.65500    0.09200    1.000
    N5       N        0.33340    0.07290    0.04900    1.000
    O11      O        0.03020    0.78550    0.05625    1.000
    O12      O        0.07990    0.89150    0.95817    1.000
    C29      C        0.01520    0.79370    0.98400    1.000
    C30      C        0.53750    0.23130    0.09480    1.000
    H17      H        0.60700    0.27140    0.13660    1.000
    C31      C        0.33490    0.10830    0.97600    1.000
    H18      H        0.26650    0.06520    0.93510    1.000
    C32      C        0.43370    0.20570    0.95940    1.000
    H19      H        0.43060    0.22860    0.90820    1.000
    C33      C        0.92330    0.69530    0.93030    1.000
    C34      C        0.91240    0.70470    0.85090    1.000
    H20      H        0.96420    0.77200    0.83060    1.000
    Cu3      Cu       0.67434    0.55718    0.56807    1.000
    O13      O        0.70940    0.53600    0.67664    1.000
    O14      O        0.88010    0.70320    0.68693    1.000
    C35      C        0.80630    0.62110    0.71610    1.000
    C36      C        0.74640    0.51290    0.83350    1.000
    H21      H        0.68670    0.45110    0.80050    1.000
    N6       N        0.67480    0.39900    0.93870    1.000
    C37      C        0.43510    0.13460    0.10730    1.000
    H22      H        0.43580    0.11050    0.15810    1.000
    C38      C        0.84730    0.59510    0.96250    1.000
    H23      H        0.85710    0.58940    0.01590    1.000
    C39      C        0.82310    0.61230    0.80240    1.000
    O15      O        0.68750    0.45920    0.06322    1.000
    C40      C        0.64110    0.38490    0.00910    1.000
    C41      C        0.75650    0.50380    0.91240    1.000
    C42      C        0.53770    0.26960    0.01960    1.000
    H24      H        0.64000    0.34500    0.90800    1.000
    N7       N        0.83340    0.42710    0.54900    1.000
    O16      O        0.53020    0.71450    0.55625    1.000
    O17      O        0.57990    0.60850    0.45817    1.000
    C43      C        0.51520    0.70630    0.48400    1.000
    C44      C        0.03750    0.26870    0.59480    1.000
    H25      H        0.10700    0.22860    0.63660    1.000
    C45      C        0.83490    0.39170    0.47600    1.000
    H26      H        0.76650    0.43480    0.43510    1.000
    C46      C        0.93370    0.29430    0.45940    1.000
    H27      H        0.93060    0.27140    0.40820    1.000
    C47      C        0.42330    0.80470    0.43030    1.000
    C48      C        0.41240    0.79530    0.35090    1.000
    H28      H        0.46420    0.72800    0.33060    1.000
    Cu4      Cu       0.17434    0.94282    0.06807    1.000
    O18      O        0.20940    0.96400    0.17664    1.000
    O19      O        0.38010    0.79680    0.18693    1.000
    C49      C        0.30630    0.87890    0.21610    1.000
    C50      C        0.24640    0.98710    0.33350    1.000
    H29      H        0.18670    0.04890    0.30050    1.000
    N8       N        0.17480    0.10100    0.43870    1.000
    C51      C        0.93510    0.36540    0.60730    1.000
    H30      H        0.93580    0.38950    0.65810    1.000
    C52      C        0.34730    0.90490    0.46250    1.000
    H31      H        0.35710    0.91060    0.51590    1.000
    C53      C        0.32310    0.88770    0.30240    1.000
    O20      O        0.18750    0.04080    0.56322    1.000
    C54      C        0.14110    0.11510    0.50910    1.000
    C55      C        0.25650    0.99620    0.41240    1.000
    C56      C        0.03770    0.23040    0.51960    1.000
    H32      H        0.14000    0.15500    0.40800    1.000
