# CIF file generated by openbabel 3.1.0, see https://openbabel.org
data_I
_chemical_name_common 'AVAQIX_clean'
_cell_length_a 12.3397
_cell_length_b 15.505
_cell_length_c 18.9437
_cell_angle_alpha 90
_cell_angle_beta 90
_cell_angle_gamma 90
_space_group_name_H-M_alt 'P 1'
_space_group_name_Hall 'P 1'
loop_
    _symmetry_equiv_pos_as_xyz
    x,y,z
loop_
    _atom_site_label
    _atom_site_type_symbol
    _atom_site_fract_x
    _atom_site_fract_y
    _atom_site_fract_z
    _atom_site_occupancy
    Cd1      Cd       0.68866    0.78400    0.31782    1.000
    Cd2      Cd       0.31134    0.28400    0.18218    1.000
    H1       H        0.30700    0.07680    0.15810    1.000
    H2       H        0.39570    0.95010    0.18440    1.000
    H3       H        0.58070    0.08280    0.32040    1.000
    H4       H        0.48790    0.20550    0.28940    1.000
    H5       H        0.34510    0.17710    0.03430    1.000
    H6       H        0.45970    0.15800    0.94030    1.000
    H7       H        0.61590    0.37080    0.99960    1.000
    H8       H        0.50060    0.38160    0.09370    1.000
    H9       H        0.69300    0.57680    0.34190    1.000
    H10      H        0.60430    0.45010    0.31560    1.000
    H11      H        0.41930    0.58280    0.17960    1.000
    H12      H        0.51210    0.70550    0.21060    1.000
    H13      H        0.65490    0.67710    0.46570    1.000
    H14      H        0.54030    0.65800    0.55970    1.000
    H15      H        0.38410    0.87080    0.50040    1.000
    H16      H        0.49940    0.88160    0.40630    1.000
    C1       C        0.36330    0.07798    0.19072    1.000
    C2       C        0.41608    0.00129    0.20631    1.000
    C3       C        0.49949    0.00244    0.25491    1.000
    C4       C        0.52584    0.08016    0.28683    1.000
    C5       C        0.46936    0.15357    0.26792    1.000
    C6       C        0.56133    0.92144    0.27417    1.000
    C7       C        0.40185    0.21581    0.02809    1.000
    C8       C        0.47017    0.20392    0.97110    1.000
    C9       C        0.55386    0.26105    0.96064    1.000
    C10      C        0.56265    0.32916    0.00640    1.000
    C11      C        0.49217    0.33567    0.06258    1.000
    C12      C        0.63778    0.24714    0.90394    1.000
    C13      C        0.63670    0.57798    0.30928    1.000
    C14      C        0.58392    0.50129    0.29369    1.000
    C15      C        0.50051    0.50244    0.24509    1.000
    C16      C        0.47416    0.58016    0.21317    1.000
    C17      C        0.53064    0.65357    0.23208    1.000
    C18      C        0.43867    0.42144    0.22583    1.000
    C19      C        0.59815    0.71581    0.47191    1.000
    C20      C        0.52983    0.70392    0.52890    1.000
    C21      C        0.44614    0.76105    0.53936    1.000
    C22      C        0.43735    0.82916    0.49360    1.000
    C23      C        0.50783    0.83567    0.43742    1.000
    C24      C        0.36222    0.74714    0.59606    1.000
    N1       N        0.38933    0.15374    0.22034    1.000
    N2       N        0.41285    0.27958    0.07449    1.000
    N3       N        0.61067    0.65374    0.27966    1.000
    N4       N        0.58715    0.77958    0.42551    1.000
    O1       O        0.52159    0.84993    0.25883    1.000
    O2       O        0.64893    0.93015    0.30586    1.000
    O3       O        0.65422    0.17189    0.88337    1.000
    O4       O        0.69024    0.31116    0.88292    1.000
    O5       O        0.47841    0.34993    0.24117    1.000
    O6       O        0.35107    0.43015    0.19414    1.000
    O7       O        0.34578    0.67189    0.61663    1.000
    O8       O        0.30976    0.81116    0.61708    1.000
    Cd3      Cd       0.81134    0.21600    0.81782    1.000
    Cd4      Cd       0.18866    0.71600    0.68218    1.000
    H17      H        0.15490    0.82290    0.53430    1.000
    H18      H        0.04030    0.84200    0.44030    1.000
    H19      H        0.88410    0.62920    0.49960    1.000
    H20      H        0.99940    0.61840    0.59370    1.000
    H21      H        0.19300    0.92320    0.65810    1.000
    H22      H        0.10430    0.04990    0.68440    1.000
    H23      H        0.91930    0.91720    0.82040    1.000
    H24      H        0.01210    0.79450    0.78940    1.000
    H25      H        0.84510    0.32290    0.96570    1.000
    H26      H        0.95970    0.34200    0.05970    1.000
    H27      H        0.11590    0.12920    0.00040    1.000
    H28      H        0.00060    0.11840    0.90630    1.000
    H29      H        0.80700    0.42320    0.84190    1.000
    H30      H        0.89570    0.54990    0.81560    1.000
    H31      H        0.08070    0.41720    0.67960    1.000
    H32      H        0.98790    0.29450    0.71060    1.000
    C25      C        0.09815    0.78419    0.52809    1.000
    C26      C        0.02983    0.79608    0.47110    1.000
    C27      C        0.94614    0.73895    0.46064    1.000
    C28      C        0.93735    0.67084    0.50640    1.000
    C29      C        0.00783    0.66433    0.56258    1.000
    C30      C        0.86222    0.75286    0.40394    1.000
    C31      C        0.13670    0.92202    0.69072    1.000
    C32      C        0.08392    0.99871    0.70631    1.000
    C33      C        0.00051    0.99756    0.75491    1.000
    C34      C        0.97416    0.91984    0.78683    1.000
    C35      C        0.03064    0.84643    0.76792    1.000
    C36      C        0.93867    0.07856    0.77417    1.000
    C37      C        0.90185    0.28419    0.97191    1.000
    C38      C        0.97017    0.29608    0.02890    1.000
    C39      C        0.05386    0.23895    0.03936    1.000
    C40      C        0.06265    0.17084    0.99360    1.000
    C41      C        0.99217    0.16433    0.93742    1.000
    C42      C        0.13778    0.25286    0.09606    1.000
    C43      C        0.86330    0.42202    0.80928    1.000
    C44      C        0.91608    0.49871    0.79369    1.000
    C45      C        0.99949    0.49756    0.74509    1.000
    C46      C        0.02584    0.41984    0.71317    1.000
    C47      C        0.96936    0.34643    0.73208    1.000
    C48      C        0.06133    0.57856    0.72583    1.000
    N5       N        0.08715    0.72042    0.57449    1.000
    N6       N        0.11067    0.84626    0.72034    1.000
    N7       N        0.91285    0.22042    0.92551    1.000
    N8       N        0.88933    0.34626    0.77966    1.000
    O9       O        0.84578    0.82811    0.38337    1.000
    O10      O        0.80976    0.68884    0.38292    1.000
    O11      O        0.97841    0.15007    0.75883    1.000
    O12      O        0.85107    0.06985    0.80586    1.000
    O13      O        0.15422    0.32811    0.11663    1.000
    O14      O        0.19024    0.18884    0.11708    1.000
    O15      O        0.02159    0.65007    0.74117    1.000
    O16      O        0.14893    0.56985    0.69414    1.000
    Cd5      Cd       0.31134    0.21600    0.68218    1.000
    Cd6      Cd       0.68866    0.71600    0.81782    1.000
    H33      H        0.69300    0.92320    0.84190    1.000
    H34      H        0.60430    0.04990    0.81560    1.000
    H35      H        0.41930    0.91720    0.67960    1.000
    H36      H        0.51210    0.79450    0.71060    1.000
    H37      H        0.65490    0.82290    0.96570    1.000
    H38      H        0.54030    0.84200    0.05970    1.000
    H39      H        0.38410    0.62920    0.00040    1.000
    H40      H        0.49940    0.61840    0.90630    1.000
    H41      H        0.30700    0.42320    0.65810    1.000
    H42      H        0.39570    0.54990    0.68440    1.000
    H43      H        0.58070    0.41720    0.82040    1.000
    H44      H        0.48790    0.29450    0.78940    1.000
    H45      H        0.34510    0.32290    0.53430    1.000
    H46      H        0.45970    0.34200    0.44030    1.000
    H47      H        0.61590    0.12920    0.49960    1.000
    H48      H        0.50060    0.11840    0.59370    1.000
    C49      C        0.63670    0.92202    0.80928    1.000
    C50      C        0.58392    0.99871    0.79369    1.000
    C51      C        0.50051    0.99756    0.74509    1.000
    C52      C        0.47416    0.91984    0.71317    1.000
    C53      C        0.53064    0.84643    0.73208    1.000
    C54      C        0.43867    0.07856    0.72583    1.000
    C55      C        0.59815    0.78419    0.97191    1.000
    C56      C        0.52983    0.79608    0.02890    1.000
    C57      C        0.44614    0.73895    0.03936    1.000
    C58      C        0.43735    0.67084    0.99360    1.000
    C59      C        0.50783    0.66433    0.93742    1.000
    C60      C        0.36222    0.75286    0.09606    1.000
    C61      C        0.36330    0.42202    0.69072    1.000
    C62      C        0.41608    0.49871    0.70631    1.000
    C63      C        0.49949    0.49756    0.75491    1.000
    C64      C        0.52584    0.41984    0.78683    1.000
    C65      C        0.46936    0.34643    0.76792    1.000
    C66      C        0.56133    0.57856    0.77417    1.000
    C67      C        0.40185    0.28419    0.52809    1.000
    C68      C        0.47017    0.29608    0.47110    1.000
    C69      C        0.55386    0.23895    0.46064    1.000
    C70      C        0.56265    0.17084    0.50640    1.000
    C71      C        0.49217    0.16433    0.56258    1.000
    C72      C        0.63778    0.25286    0.40394    1.000
    N9       N        0.61067    0.84626    0.77966    1.000
    N10      N        0.58715    0.72042    0.92551    1.000
    N11      N        0.38933    0.34626    0.72034    1.000
    N12      N        0.41285    0.22042    0.57449    1.000
    O17      O        0.47841    0.15007    0.74117    1.000
    O18      O        0.35107    0.06985    0.69414    1.000
    O19      O        0.34578    0.82811    0.11663    1.000
    O20      O        0.30976    0.68884    0.11708    1.000
    O21      O        0.52159    0.65007    0.75883    1.000
    O22      O        0.64893    0.56985    0.80586    1.000
    O23      O        0.65422    0.32811    0.38337    1.000
    O24      O        0.69024    0.18884    0.38292    1.000
    Cd7      Cd       0.18866    0.78400    0.18218    1.000
    Cd8      Cd       0.81134    0.28400    0.31782    1.000
    H49      H        0.84510    0.17710    0.46570    1.000
    H50      H        0.95970    0.15800    0.55970    1.000
    H51      H        0.11590    0.37080    0.50040    1.000
    H52      H        0.00060    0.38160    0.40630    1.000
    H53      H        0.80700    0.07680    0.34190    1.000
    H54      H        0.89570    0.95010    0.31560    1.000
    H55      H        0.08070    0.08280    0.17960    1.000
    H56      H        0.98790    0.20550    0.21060    1.000
    H57      H        0.15490    0.67710    0.03430    1.000
    H58      H        0.04030    0.65800    0.94030    1.000
    H59      H        0.88410    0.87080    0.99960    1.000
    H60      H        0.99940    0.88160    0.09370    1.000
    H61      H        0.19300    0.57680    0.15810    1.000
    H62      H        0.10430    0.45010    0.18440    1.000
    H63      H        0.91930    0.58280    0.32040    1.000
    H64      H        0.01210    0.70550    0.28940    1.000
    C73      C        0.90185    0.21581    0.47191    1.000
    C74      C        0.97017    0.20392    0.52890    1.000
    C75      C        0.05386    0.26105    0.53936    1.000
    C76      C        0.06265    0.32916    0.49360    1.000
    C77      C        0.99217    0.33567    0.43742    1.000
    C78      C        0.13778    0.24714    0.59606    1.000
    C79      C        0.86330    0.07798    0.30928    1.000
    C80      C        0.91608    0.00129    0.29369    1.000
    C81      C        0.99949    0.00244    0.24509    1.000
    C82      C        0.02584    0.08016    0.21317    1.000
    C83      C        0.96936    0.15357    0.23208    1.000
    C84      C        0.06133    0.92144    0.22583    1.000
    C85      C        0.09815    0.71581    0.02809    1.000
    C86      C        0.02983    0.70392    0.97110    1.000
    C87      C        0.94614    0.76105    0.96064    1.000
    C88      C        0.93735    0.82916    0.00640    1.000
    C89      C        0.00783    0.83567    0.06258    1.000
    C90      C        0.86222    0.74714    0.90394    1.000
    C91      C        0.13670    0.57798    0.19072    1.000
    C92      C        0.08392    0.50129    0.20631    1.000
    C93      C        0.00051    0.50244    0.25491    1.000
    C94      C        0.97416    0.58016    0.28683    1.000
    C95      C        0.03064    0.65357    0.26792    1.000
    C96      C        0.93867    0.42144    0.27417    1.000
    N13      N        0.91285    0.27958    0.42551    1.000
    N14      N        0.88933    0.15374    0.27966    1.000
    N15      N        0.08715    0.77958    0.07449    1.000
    N16      N        0.11067    0.65374    0.22034    1.000
    O25      O        0.15422    0.17189    0.61663    1.000
    O26      O        0.19024    0.31116    0.61708    1.000
    O27      O        0.02159    0.84993    0.24117    1.000
    O28      O        0.14893    0.93015    0.19414    1.000
    O29      O        0.84578    0.67189    0.88337    1.000
    O30      O        0.80976    0.81116    0.88292    1.000
    O31      O        0.97841    0.34993    0.25883    1.000
    O32      O        0.85107    0.43015    0.30586    1.000
