# CIF file generated by openbabel 3.1.0, see https://openbabel.org
data_I
_chemical_name_common 'HAZGOF_clean'
_cell_length_a 8.7433
_cell_length_b 11.256
_cell_length_c 17.7306
_cell_angle_alpha 84.505
_cell_angle_beta 75.726
_cell_angle_gamma 67.1462
_space_group_name_H-M_alt 'P 1'
_space_group_name_Hall 'P 1'
loop_
    _symmetry_equiv_pos_as_xyz
    x,y,z
loop_
    _atom_site_label
    _atom_site_type_symbol
    _atom_site_fract_x
    _atom_site_fract_y
    _atom_site_fract_z
    _atom_site_occupancy
    Sc1      Sc       0.63568    0.75000    0.72864    1.000
    Sc2      Sc       0.11432    0.75000    0.77136    1.000
    Sc3      Sc       0.36432    0.25000    0.27136    1.000
    Sc4      Sc       0.88568    0.25000    0.22864    1.000
    H1       H        0.22050    0.55080    0.98220    1.000
    H2       H        0.68380    0.57180    0.90860    1.000
    H3       H        0.84510    0.36220    0.74960    1.000
    H4       H        0.79730    0.94920    0.98220    1.000
    H5       H        0.40760    0.92820    0.90860    1.000
    H6       H        0.40530    0.13780    0.74960    1.000
    H7       H        0.72870    0.55080    0.51780    1.000
    H8       H        0.24440    0.57180    0.59140    1.000
    H9       H        0.29270    0.36220    0.75040    1.000
    H10      H        0.75350    0.94920    0.51780    1.000
    H11      H        0.16420    0.92820    0.59140    1.000
    H12      H        0.95690    0.13780    0.75040    1.000
    H13      H        0.77950    0.44920    0.01780    1.000
    H14      H        0.31620    0.42820    0.09140    1.000
    H15      H        0.15490    0.63780    0.25040    1.000
    H16      H        0.20270    0.05080    0.01780    1.000
    H17      H        0.59240    0.07180    0.09140    1.000
    H18      H        0.59470    0.86220    0.25040    1.000
    H19      H        0.27130    0.44920    0.48220    1.000
    H20      H        0.75560    0.42820    0.40860    1.000
    H21      H        0.70730    0.63780    0.24960    1.000
    H22      H        0.24650    0.05080    0.48220    1.000
    H23      H        0.83580    0.07180    0.40860    1.000
    H24      H        0.04310    0.86220    0.24960    1.000
    C1       C        0.95629    0.31660    0.74902    1.000
    C2       C        0.44930    0.56714    0.93504    1.000
    C3       C        0.39579    0.63944    0.86460    1.000
    C4       C        0.61196    0.53892    0.94456    1.000
    C5       C        0.33738    0.52830    0.99054    1.000
    C6       C        0.29469    0.18340    0.74902    1.000
    C7       C        0.61566    0.93286    0.93504    1.000
    C8       C        0.73961    0.86056    0.86460    1.000
    C9       C        0.44348    0.96108    0.94456    1.000
    C10      C        0.67208    0.97170    0.99054    1.000
    C11      C        0.22711    0.31660    0.75098    1.000
    C12      C        0.48356    0.56714    0.56496    1.000
    C13      C        0.46477    0.63944    0.63540    1.000
    C14      C        0.34912    0.53892    0.55544    1.000
    C15      C        0.63432    0.52830    0.50946    1.000
    C16      C        0.02191    0.18340    0.75098    1.000
    C17      C        0.95148    0.93286    0.56496    1.000
    C18      C        0.89983    0.86056    0.63540    1.000
    C19      C        0.09544    0.96108    0.55544    1.000
    C20      C        0.85622    0.97170    0.50946    1.000
    C21      C        0.04371    0.68340    0.25098    1.000
    C22      C        0.55070    0.43286    0.06496    1.000
    C23      C        0.60421    0.36056    0.13540    1.000
    C24      C        0.38804    0.46108    0.05544    1.000
    C25      C        0.66262    0.47170    0.00946    1.000
    C26      C        0.70531    0.81660    0.25098    1.000
    C27      C        0.38434    0.06714    0.06496    1.000
    C28      C        0.26039    0.13944    0.13540    1.000
    C29      C        0.55652    0.03892    0.05544    1.000
    C30      C        0.32792    0.02830    0.00946    1.000
    C31      C        0.77289    0.68340    0.24902    1.000
    C32      C        0.51644    0.43286    0.43504    1.000
    C33      C        0.53523    0.36056    0.36460    1.000
    C34      C        0.65088    0.46108    0.44456    1.000
    C35      C        0.36568    0.47170    0.49054    1.000
    C36      C        0.97809    0.81660    0.24902    1.000
    C37      C        0.04852    0.06714    0.43504    1.000
    C38      C        0.10017    0.13944    0.36460    1.000
    C39      C        0.90456    0.03892    0.44456    1.000
    C40      C        0.14378    0.02830    0.49054    1.000
    C41      C        0.98643    0.52714    0.75000    1.000
    C42      C        0.05810    0.38380    0.75000    1.000
    C43      C        0.26357    0.97286    0.75000    1.000
    C44      C        0.19190    0.11620    0.75000    1.000
    C45      C        0.01357    0.47286    0.25000    1.000
    C46      C        0.94190    0.61620    0.25000    1.000
    C47      C        0.73643    0.02714    0.25000    1.000
    C48      C        0.80810    0.88380    0.25000    1.000
    O1       O        0.84877    0.58362    0.72938    1.000
    O2       O        0.50362    0.66850    0.81486    1.000
    O3       O        0.24597    0.66664    0.85892    1.000
    O4       O        0.42185    0.91638    0.72938    1.000
    O5       O        0.68152    0.83150    0.81486    1.000
    O6       O        0.89511    0.83336    0.85892    1.000
    O7       O        0.06761    0.58362    0.77062    1.000
    O8       O        0.32788    0.66850    0.68514    1.000
    O9       O        0.58739    0.66664    0.64108    1.000
    O10      O        0.16177    0.91638    0.77062    1.000
    O11      O        0.98698    0.83150    0.68514    1.000
    O12      O        0.77153    0.83336    0.64108    1.000
    O13      O        0.15123    0.41638    0.27062    1.000
    O14      O        0.49638    0.33150    0.18514    1.000
    O15      O        0.75403    0.33336    0.14108    1.000
    O16      O        0.57815    0.08362    0.27062    1.000
    O17      O        0.31848    0.16850    0.18514    1.000
    O18      O        0.10489    0.16664    0.14108    1.000
    O19      O        0.93239    0.41638    0.22938    1.000
    O20      O        0.67212    0.33150    0.31486    1.000
    O21      O        0.41261    0.33336    0.35892    1.000
    O22      O        0.83823    0.08362    0.22938    1.000
    O23      O        0.01302    0.16850    0.31486    1.000
    O24      O        0.22847    0.16664    0.35892    1.000
