# CIF file generated by openbabel 3.1.0, see https://openbabel.org
data_I
_chemical_name_common 'image0'
_cell_length_a 19.67
_cell_length_b 22.239
_cell_length_c 11.6392
_cell_angle_alpha 90
_cell_angle_beta 116.746
_cell_angle_gamma 90
_space_group_name_H-M_alt 'P 1'
_space_group_name_Hall 'P 1'
loop_
    _symmetry_equiv_pos_as_xyz
    x,y,z
loop_
    _atom_site_label
    _atom_site_type_symbol
    _atom_site_fract_x
    _atom_site_fract_y
    _atom_site_fract_z
    _atom_site_occupancy
    Ni1      Ni       0.18936    0.12040    0.38787    1.000
    N1       N        0.21880    0.13830    0.57560    1.000
    N2       N        0.35960    0.20940    0.03030    1.000
    N3       N        0.59810    0.32120    0.31530    1.000
    O1       O        0.26800    0.17687    0.36360    1.000
    O2       O        0.19040    0.11990    0.20360    1.000
    O3       O        0.26734    0.05006    0.44070    1.000
    O4       O        0.11638    0.05010    0.36450    1.000
    C1       C        0.17400    0.12820    0.63260    1.000
    H1       H        0.12600    0.11190    0.58340    1.000
    C2       C        0.19540    0.14060    0.75990    1.000
    H2       H        0.16190    0.13290    0.79450    1.000
    C3       C        0.26740    0.16460    0.83750    1.000
    C4       C        0.31330    0.17560    0.77840    1.000
    H3       H        0.36150    0.19220    0.82500    1.000
    C5       C        0.28740    0.16190    0.64970    1.000
    H4       H        0.31960    0.16940    0.61230    1.000
    C6       C        0.29490    0.17880    0.97550    1.000
    C7       C        0.25630    0.16010    0.04520    1.000
    H5       H        0.21120    0.13840    0.00500    1.000
    C8       C        0.28580    0.17420    0.17390    1.000
    C9       C        0.35470    0.20460    0.23230    1.000
    H6       H        0.37680    0.21350    0.31970    1.000
    C10      C        0.39000    0.22130    0.15650    1.000
    C11      C        0.58780    0.27520    0.38080    1.000
    H7       H        0.62690    0.26510    0.46080    1.000
    C12      C        0.52060    0.24230    0.33260    1.000
    H8       H        0.51460    0.21180    0.38190    1.000
    C13      C        0.46290    0.25460    0.21240    1.000
    C14      C        0.47480    0.30160    0.14270    1.000
    H9       H        0.43800    0.31110    0.06020    1.000
    C15      C        0.54210    0.33350    0.19890    1.000
    H10      H        0.54890    0.36530    0.15310    1.000
    C16      C        0.24510    0.15580    0.25120    1.000
    Ni2      Ni       0.68936    0.62040    0.38787    1.000
    N4       N        0.71880    0.63830    0.57560    1.000
    N5       N        0.85960    0.70940    0.03030    1.000
    N6       N        0.09810    0.82120    0.31530    1.000
    O5       O        0.76800    0.67687    0.36360    1.000
    O6       O        0.69040    0.61990    0.20360    1.000
    O7       O        0.76734    0.55006    0.44070    1.000
    O8       O        0.61638    0.55010    0.36450    1.000
    C17      C        0.67400    0.62820    0.63260    1.000
    H11      H        0.62600    0.61190    0.58340    1.000
    C18      C        0.69540    0.64060    0.75990    1.000
    H12      H        0.66190    0.63290    0.79450    1.000
    C19      C        0.76740    0.66460    0.83750    1.000
    C20      C        0.81330    0.67560    0.77840    1.000
    H13      H        0.86150    0.69220    0.82500    1.000
    C21      C        0.78740    0.66190    0.64970    1.000
    H14      H        0.81960    0.66940    0.61230    1.000
    C22      C        0.79490    0.67880    0.97550    1.000
    C23      C        0.75630    0.66010    0.04520    1.000
    H15      H        0.71120    0.63840    0.00500    1.000
    C24      C        0.78580    0.67420    0.17390    1.000
    C25      C        0.85470    0.70460    0.23230    1.000
    H16      H        0.87680    0.71350    0.31970    1.000
    C26      C        0.89000    0.72130    0.15650    1.000
    C27      C        0.08780    0.77520    0.38080    1.000
    H17      H        0.12690    0.76510    0.46080    1.000
    C28      C        0.02060    0.74230    0.33260    1.000
    H18      H        0.01460    0.71180    0.38190    1.000
    C29      C        0.96290    0.75460    0.21240    1.000
    C30      C        0.97480    0.80160    0.14270    1.000
    H19      H        0.93800    0.81110    0.06020    1.000
    C31      C        0.04210    0.83350    0.19890    1.000
    H20      H        0.04890    0.86530    0.15310    1.000
    C32      C        0.74510    0.65580    0.25120    1.000
    Ni3      Ni       0.18936    0.87960    0.38787    1.000
    N7       N        0.21880    0.86170    0.57560    1.000
    N8       N        0.35960    0.79060    0.03030    1.000
    N9       N        0.59810    0.67880    0.31530    1.000
    O9       O        0.26800    0.82313    0.36360    1.000
    O10      O        0.19040    0.88010    0.20360    1.000
    O11      O        0.26734    0.94994    0.44070    1.000
    O12      O        0.11638    0.94990    0.36450    1.000
    C33      C        0.17400    0.87180    0.63260    1.000
    H21      H        0.12600    0.88810    0.58340    1.000
    C34      C        0.19540    0.85940    0.75990    1.000
    H22      H        0.16190    0.86710    0.79450    1.000
    C35      C        0.26740    0.83540    0.83750    1.000
    C36      C        0.31330    0.82440    0.77840    1.000
    H23      H        0.36150    0.80780    0.82500    1.000
    C37      C        0.28740    0.83810    0.64970    1.000
    H24      H        0.31960    0.83060    0.61230    1.000
    C38      C        0.29490    0.82120    0.97550    1.000
    C39      C        0.25630    0.83990    0.04520    1.000
    H25      H        0.21120    0.86160    0.00500    1.000
    C40      C        0.28580    0.82580    0.17390    1.000
    C41      C        0.35470    0.79540    0.23230    1.000
    H26      H        0.37680    0.78650    0.31970    1.000
    C42      C        0.39000    0.77870    0.15650    1.000
    C43      C        0.58780    0.72480    0.38080    1.000
    H27      H        0.62690    0.73490    0.46080    1.000
    C44      C        0.52060    0.75770    0.33260    1.000
    H28      H        0.51460    0.78820    0.38190    1.000
    C45      C        0.46290    0.74540    0.21240    1.000
    C46      C        0.47480    0.69840    0.14270    1.000
    H29      H        0.43800    0.68890    0.06020    1.000
    C47      C        0.54210    0.66650    0.19890    1.000
    H30      H        0.54890    0.63470    0.15310    1.000
    C48      C        0.24510    0.84420    0.25120    1.000
    Ni4      Ni       0.68936    0.37960    0.38787    1.000
    N10      N        0.71880    0.36170    0.57560    1.000
    N11      N        0.85960    0.29060    0.03030    1.000
    N12      N        0.09810    0.17880    0.31530    1.000
    O13      O        0.76800    0.32313    0.36360    1.000
    O14      O        0.69040    0.38010    0.20360    1.000
    O15      O        0.76734    0.44994    0.44070    1.000
    O16      O        0.61638    0.44990    0.36450    1.000
    C49      C        0.67400    0.37180    0.63260    1.000
    H31      H        0.62600    0.38810    0.58340    1.000
    C50      C        0.69540    0.35940    0.75990    1.000
    H32      H        0.66190    0.36710    0.79450    1.000
    C51      C        0.76740    0.33540    0.83750    1.000
    C52      C        0.81330    0.32440    0.77840    1.000
    H33      H        0.86150    0.30780    0.82500    1.000
    C53      C        0.78740    0.33810    0.64970    1.000
    H34      H        0.81960    0.33060    0.61230    1.000
    C54      C        0.79490    0.32120    0.97550    1.000
    C55      C        0.75630    0.33990    0.04520    1.000
    H35      H        0.71120    0.36160    0.00500    1.000
    C56      C        0.78580    0.32580    0.17390    1.000
    C57      C        0.85470    0.29540    0.23230    1.000
    H36      H        0.87680    0.28650    0.31970    1.000
    C58      C        0.89000    0.27870    0.15650    1.000
    C59      C        0.08780    0.22480    0.38080    1.000
    H37      H        0.12690    0.23490    0.46080    1.000
    C60      C        0.02060    0.25770    0.33260    1.000
    H38      H        0.01460    0.28820    0.38190    1.000
    C61      C        0.96290    0.24540    0.21240    1.000
    C62      C        0.97480    0.19840    0.14270    1.000
    H39      H        0.93800    0.18890    0.06020    1.000
    C63      C        0.04210    0.16650    0.19890    1.000
    H40      H        0.04890    0.13470    0.15310    1.000
    C64      C        0.74510    0.34420    0.25120    1.000
    C65      C        0.23590    0.00000    0.42490    1.000
    C66      C        0.14840    0.00000    0.38100    1.000
    C67      C        0.73590    0.50000    0.42490    1.000
    C68      C        0.64840    0.50000    0.38100    1.000
    Ni5      Ni       0.81064    0.12040    0.61213    1.000
    N13      N        0.78120    0.13830    0.42440    1.000
    N14      N        0.64040    0.20940    0.96970    1.000
    N15      N        0.40190    0.32120    0.68470    1.000
    O17      O        0.73200    0.17687    0.63640    1.000
    O18      O        0.80960    0.11990    0.79640    1.000
    O19      O        0.73266    0.05006    0.55930    1.000
    O20      O        0.88362    0.05010    0.63550    1.000
    C69      C        0.82600    0.12820    0.36740    1.000
    H41      H        0.87400    0.11190    0.41660    1.000
    C70      C        0.80460    0.14060    0.24010    1.000
    H42      H        0.83810    0.13290    0.20550    1.000
    C71      C        0.73260    0.16460    0.16250    1.000
    C72      C        0.68670    0.17560    0.22160    1.000
    H43      H        0.63850    0.19220    0.17500    1.000
    C73      C        0.71260    0.16190    0.35030    1.000
    H44      H        0.68040    0.16940    0.38770    1.000
    C74      C        0.70510    0.17880    0.02450    1.000
    C75      C        0.74370    0.16010    0.95480    1.000
    H45      H        0.78880    0.13840    0.99500    1.000
    C76      C        0.71420    0.17420    0.82610    1.000
    C77      C        0.64530    0.20460    0.76770    1.000
    H46      H        0.62320    0.21350    0.68030    1.000
    C78      C        0.61000    0.22130    0.84350    1.000
    C79      C        0.41220    0.27520    0.61920    1.000
    H47      H        0.37310    0.26510    0.53920    1.000
    C80      C        0.47940    0.24230    0.66740    1.000
    H48      H        0.48540    0.21180    0.61810    1.000
    C81      C        0.53710    0.25460    0.78760    1.000
    C82      C        0.52520    0.30160    0.85730    1.000
    H49      H        0.56200    0.31110    0.93980    1.000
    C83      C        0.45790    0.33350    0.80110    1.000
    H50      H        0.45110    0.36530    0.84690    1.000
    C84      C        0.75490    0.15580    0.74880    1.000
    Ni6      Ni       0.31064    0.62040    0.61213    1.000
    N16      N        0.28120    0.63830    0.42440    1.000
    N17      N        0.14040    0.70940    0.96970    1.000
    N18      N        0.90190    0.82120    0.68470    1.000
    O21      O        0.23200    0.67687    0.63640    1.000
    O22      O        0.30960    0.61990    0.79640    1.000
    O23      O        0.23266    0.55006    0.55930    1.000
    O24      O        0.38362    0.55010    0.63550    1.000
    C85      C        0.32600    0.62820    0.36740    1.000
    H51      H        0.37400    0.61190    0.41660    1.000
    C86      C        0.30460    0.64060    0.24010    1.000
    H52      H        0.33810    0.63290    0.20550    1.000
    C87      C        0.23260    0.66460    0.16250    1.000
    C88      C        0.18670    0.67560    0.22160    1.000
    H53      H        0.13850    0.69220    0.17500    1.000
    C89      C        0.21260    0.66190    0.35030    1.000
    H54      H        0.18040    0.66940    0.38770    1.000
    C90      C        0.20510    0.67880    0.02450    1.000
    C91      C        0.24370    0.66010    0.95480    1.000
    H55      H        0.28880    0.63840    0.99500    1.000
    C92      C        0.21420    0.67420    0.82610    1.000
    C93      C        0.14530    0.70460    0.76770    1.000
    H56      H        0.12320    0.71350    0.68030    1.000
    C94      C        0.11000    0.72130    0.84350    1.000
    C95      C        0.91220    0.77520    0.61920    1.000
    H57      H        0.87310    0.76510    0.53920    1.000
    C96      C        0.97940    0.74230    0.66740    1.000
    H58      H        0.98540    0.71180    0.61810    1.000
    C97      C        0.03710    0.75460    0.78760    1.000
    C98      C        0.02520    0.80160    0.85730    1.000
    H59      H        0.06200    0.81110    0.93980    1.000
    C99      C        0.95790    0.83350    0.80110    1.000
    H60      H        0.95110    0.86530    0.84690    1.000
    C100     C        0.25490    0.65580    0.74880    1.000
    Ni7      Ni       0.81064    0.87960    0.61213    1.000
    N19      N        0.78120    0.86170    0.42440    1.000
    N20      N        0.64040    0.79060    0.96970    1.000
    N21      N        0.40190    0.67880    0.68470    1.000
    O25      O        0.73200    0.82313    0.63640    1.000
    O26      O        0.80960    0.88010    0.79640    1.000
    O27      O        0.73266    0.94994    0.55930    1.000
    O28      O        0.88362    0.94990    0.63550    1.000
    C101     C        0.82600    0.87180    0.36740    1.000
    H61      H        0.87400    0.88810    0.41660    1.000
    C102     C        0.80460    0.85940    0.24010    1.000
    H62      H        0.83810    0.86710    0.20550    1.000
    C103     C        0.73260    0.83540    0.16250    1.000
    C104     C        0.68670    0.82440    0.22160    1.000
    H63      H        0.63850    0.80780    0.17500    1.000
    C105     C        0.71260    0.83810    0.35030    1.000
    H64      H        0.68040    0.83060    0.38770    1.000
    C106     C        0.70510    0.82120    0.02450    1.000
    C107     C        0.74370    0.83990    0.95480    1.000
    H65      H        0.78880    0.86160    0.99500    1.000
    C108     C        0.71420    0.82580    0.82610    1.000
    C109     C        0.64530    0.79540    0.76770    1.000
    H66      H        0.62320    0.78650    0.68030    1.000
    C110     C        0.61000    0.77870    0.84350    1.000
    C111     C        0.41220    0.72480    0.61920    1.000
    H67      H        0.37310    0.73490    0.53920    1.000
    C112     C        0.47940    0.75770    0.66740    1.000
    H68      H        0.48540    0.78820    0.61810    1.000
    C113     C        0.53710    0.74540    0.78760    1.000
    C114     C        0.52520    0.69840    0.85730    1.000
    H69      H        0.56200    0.68890    0.93980    1.000
    C115     C        0.45790    0.66650    0.80110    1.000
    H70      H        0.45110    0.63470    0.84690    1.000
    C116     C        0.75490    0.84420    0.74880    1.000
    Ni8      Ni       0.31064    0.37960    0.61213    1.000
    N22      N        0.28120    0.36170    0.42440    1.000
    N23      N        0.14040    0.29060    0.96970    1.000
    N24      N        0.90190    0.17880    0.68470    1.000
    O29      O        0.23200    0.32313    0.63640    1.000
    O30      O        0.30960    0.38010    0.79640    1.000
    O31      O        0.23266    0.44994    0.55930    1.000
    O32      O        0.38362    0.44990    0.63550    1.000
    C117     C        0.32600    0.37180    0.36740    1.000
    H71      H        0.37400    0.38810    0.41660    1.000
    C118     C        0.30460    0.35940    0.24010    1.000
    H72      H        0.33810    0.36710    0.20550    1.000
    C119     C        0.23260    0.33540    0.16250    1.000
    C120     C        0.18670    0.32440    0.22160    1.000
    H73      H        0.13850    0.30780    0.17500    1.000
    C121     C        0.21260    0.33810    0.35030    1.000
    H74      H        0.18040    0.33060    0.38770    1.000
    C122     C        0.20510    0.32120    0.02450    1.000
    C123     C        0.24370    0.33990    0.95480    1.000
    H75      H        0.28880    0.36160    0.99500    1.000
    C124     C        0.21420    0.32580    0.82610    1.000
    C125     C        0.14530    0.29540    0.76770    1.000
    H76      H        0.12320    0.28650    0.68030    1.000
    C126     C        0.11000    0.27870    0.84350    1.000
    C127     C        0.91220    0.22480    0.61920    1.000
    H77      H        0.87310    0.23490    0.53920    1.000
    C128     C        0.97940    0.25770    0.66740    1.000
    H78      H        0.98540    0.28820    0.61810    1.000
    C129     C        0.03710    0.24540    0.78760    1.000
    C130     C        0.02520    0.19840    0.85730    1.000
    H79      H        0.06200    0.18890    0.93980    1.000
    C131     C        0.95790    0.16650    0.80110    1.000
    H80      H        0.95110    0.13470    0.84690    1.000
    C132     C        0.25490    0.34420    0.74880    1.000
    C133     C        0.76410    0.00000    0.57510    1.000
    C134     C        0.85160    0.00000    0.61900    1.000
    C135     C        0.26410    0.50000    0.57510    1.000
    C136     C        0.35160    0.50000    0.61900    1.000
