# CIF file generated by openbabel 3.1.0, see https://openbabel.org
data_I
_chemical_name_common 'image0'
_cell_length_a 18.504
_cell_length_b 19.802
_cell_length_c 8.657
_cell_angle_alpha 90
_cell_angle_beta 99.74
_cell_angle_gamma 90
_space_group_name_H-M_alt 'P 1'
_space_group_name_Hall 'P 1'
loop_
    _symmetry_equiv_pos_as_xyz
    x,y,z
loop_
    _atom_site_label
    _atom_site_type_symbol
    _atom_site_fract_x
    _atom_site_fract_y
    _atom_site_fract_z
    _atom_site_occupancy
    C1       C        0.24530    0.45090    0.66790    1.000
    H1       H        0.19860    0.47240    0.62960    1.000
    H2       H        0.25460    0.41860    0.58940    1.000
    N1       N        0.07885    0.25620    0.77580    1.000
    C2       C        0.30560    0.50470    0.68660    1.000
    N2       N        0.41440    0.60380    0.71600    1.000
    C3       C        0.18270    0.35980    0.79450    1.000
    C4       C        0.12960    0.26510    0.90300    1.000
    H3       H        0.13000    0.23600    0.98740    1.000
    C5       C        0.23990    0.41610    0.80610    1.000
    H4       H        0.22930    0.44860    0.88290    1.000
    H5       H        0.28750    0.39660    0.84610    1.000
    C6       C        0.12850    0.35220    0.66410    1.000
    H6       H        0.12590    0.38190    0.58020    1.000
    C7       C        0.35260    0.61370    0.77220    1.000
    H7       H        0.34660    0.65400    0.82400    1.000
    C8       C        0.36980    0.49540    0.62980    1.000
    H8       H        0.37820    0.45490    0.58140    1.000
    C9       C        0.07860    0.30010    0.65930    1.000
    H9       H        0.04300    0.29540    0.57020    1.000
    C10      C        0.42180    0.54540    0.64390    1.000
    H10      H        0.46400    0.53820    0.60130    1.000
    C11      C        0.18200    0.31590    0.91510    1.000
    H11      H        0.21670    0.32000    0.00580    1.000
    N3       N        0.00017    0.17220    0.51040    1.000
    C12      C        0.99980    0.15730    0.38300    1.000
    N4       N        0.02110    0.13300    0.26230    1.000
    C13      C        0.29620    0.56580    0.75610    1.000
    H12      H        0.25280    0.57520    0.79230    1.000
    C14      C        0.74530    0.95090    0.66790    1.000
    H13      H        0.69860    0.97240    0.62960    1.000
    H14      H        0.75460    0.91860    0.58940    1.000
    N5       N        0.57885    0.75620    0.77580    1.000
    C15      C        0.80560    0.00470    0.68660    1.000
    N6       N        0.91440    0.10380    0.71600    1.000
    C16      C        0.68270    0.85980    0.79450    1.000
    C17      C        0.62960    0.76510    0.90300    1.000
    H15      H        0.63000    0.73600    0.98740    1.000
    C18      C        0.73990    0.91610    0.80610    1.000
    H16      H        0.72930    0.94860    0.88290    1.000
    H17      H        0.78750    0.89660    0.84610    1.000
    C19      C        0.62850    0.85220    0.66410    1.000
    H18      H        0.62590    0.88190    0.58020    1.000
    C20      C        0.85260    0.11370    0.77220    1.000
    H19      H        0.84660    0.15400    0.82400    1.000
    C21      C        0.86980    0.99540    0.62980    1.000
    H20      H        0.87820    0.95490    0.58140    1.000
    C22      C        0.57860    0.80010    0.65930    1.000
    H21      H        0.54300    0.79540    0.57020    1.000
    C23      C        0.92180    0.04540    0.64390    1.000
    H22      H        0.96400    0.03820    0.60130    1.000
    C24      C        0.68200    0.81590    0.91510    1.000
    H23      H        0.71670    0.82000    0.00580    1.000
    N7       N        0.50017    0.67220    0.51040    1.000
    C25      C        0.49980    0.65730    0.38300    1.000
    N8       N        0.52110    0.63300    0.26230    1.000
    C26      C        0.79620    0.06580    0.75610    1.000
    H24      H        0.75280    0.07520    0.79230    1.000
    C27      C        0.75470    0.45090    0.83210    1.000
    H25      H        0.80140    0.47240    0.87040    1.000
    H26      H        0.74540    0.41860    0.91060    1.000
    N9       N        0.92115    0.25620    0.72420    1.000
    C28      C        0.69440    0.50470    0.81340    1.000
    N10      N        0.58560    0.60380    0.78400    1.000
    C29      C        0.81730    0.35980    0.70550    1.000
    C30      C        0.87040    0.26510    0.59700    1.000
    H27      H        0.87000    0.23600    0.51260    1.000
    C31      C        0.76010    0.41610    0.69390    1.000
    H28      H        0.77070    0.44860    0.61710    1.000
    H29      H        0.71250    0.39660    0.65390    1.000
    C32      C        0.87150    0.35220    0.83590    1.000
    H30      H        0.87410    0.38190    0.91980    1.000
    C33      C        0.64740    0.61370    0.72780    1.000
    H31      H        0.65340    0.65400    0.67600    1.000
    C34      C        0.63020    0.49540    0.87020    1.000
    H32      H        0.62180    0.45490    0.91860    1.000
    C35      C        0.92140    0.30010    0.84070    1.000
    H33      H        0.95700    0.29540    0.92980    1.000
    C36      C        0.57820    0.54540    0.85610    1.000
    H34      H        0.53600    0.53820    0.89870    1.000
    C37      C        0.81800    0.31590    0.58490    1.000
    H35      H        0.78330    0.32000    0.49420    1.000
    N11      N        0.99983    0.17220    0.98960    1.000
    C38      C        0.00020    0.15730    0.11700    1.000
    N12      N        0.97890    0.13300    0.23770    1.000
    C39      C        0.70380    0.56580    0.74390    1.000
    H36      H        0.74720    0.57520    0.70770    1.000
    C40      C        0.25470    0.95090    0.83210    1.000
    H37      H        0.30140    0.97240    0.87040    1.000
    H38      H        0.24540    0.91860    0.91060    1.000
    N13      N        0.42115    0.75620    0.72420    1.000
    C41      C        0.19440    0.00470    0.81340    1.000
    N14      N        0.08560    0.10380    0.78400    1.000
    C42      C        0.31730    0.85980    0.70550    1.000
    C43      C        0.37040    0.76510    0.59700    1.000
    H39      H        0.37000    0.73600    0.51260    1.000
    C44      C        0.26010    0.91610    0.69390    1.000
    H40      H        0.27070    0.94860    0.61710    1.000
    H41      H        0.21250    0.89660    0.65390    1.000
    C45      C        0.37150    0.85220    0.83590    1.000
    H42      H        0.37410    0.88190    0.91980    1.000
    C46      C        0.14740    0.11370    0.72780    1.000
    H43      H        0.15340    0.15400    0.67600    1.000
    C47      C        0.13020    0.99540    0.87020    1.000
    H44      H        0.12180    0.95490    0.91860    1.000
    C48      C        0.42140    0.80010    0.84070    1.000
    H45      H        0.45700    0.79540    0.92980    1.000
    C49      C        0.07820    0.04540    0.85610    1.000
    H46      H        0.03600    0.03820    0.89870    1.000
    C50      C        0.31800    0.81590    0.58490    1.000
    H47      H        0.28330    0.82000    0.49420    1.000
    N15      N        0.49983    0.67220    0.98960    1.000
    C51      C        0.50020    0.65730    0.11700    1.000
    N16      N        0.47890    0.63300    0.23770    1.000
    C52      C        0.20380    0.06580    0.74390    1.000
    H48      H        0.24720    0.07520    0.70770    1.000
    Ni1      Ni       0.00000    0.17885    0.75000    1.000
    Ni2      Ni       0.50000    0.67885    0.75000    1.000
    C53      C        0.75470    0.54910    0.33210    1.000
    H49      H        0.80140    0.52760    0.37040    1.000
    H50      H        0.74540    0.58140    0.41060    1.000
    N17      N        0.92115    0.74380    0.22420    1.000
    C54      C        0.69440    0.49530    0.31340    1.000
    N18      N        0.58560    0.39620    0.28400    1.000
    C55      C        0.81730    0.64020    0.20550    1.000
    C56      C        0.87040    0.73490    0.09700    1.000
    H51      H        0.87000    0.76400    0.01260    1.000
    C57      C        0.76010    0.58390    0.19390    1.000
    H52      H        0.77070    0.55140    0.11710    1.000
    H53      H        0.71250    0.60340    0.15390    1.000
    C58      C        0.87150    0.64780    0.33590    1.000
    H54      H        0.87410    0.61810    0.41980    1.000
    C59      C        0.64740    0.38630    0.22780    1.000
    H55      H        0.65340    0.34600    0.17600    1.000
    C60      C        0.63020    0.50460    0.37020    1.000
    H56      H        0.62180    0.54510    0.41860    1.000
    C61      C        0.92140    0.69990    0.34070    1.000
    H57      H        0.95700    0.70460    0.42980    1.000
    C62      C        0.57820    0.45460    0.35610    1.000
    H58      H        0.53600    0.46180    0.39870    1.000
    C63      C        0.81800    0.68410    0.08490    1.000
    H59      H        0.78330    0.68000    0.99420    1.000
    N19      N        0.99983    0.82780    0.48960    1.000
    C64      C        0.00020    0.84270    0.61700    1.000
    N20      N        0.97890    0.86700    0.73770    1.000
    C65      C        0.70380    0.43420    0.24390    1.000
    H60      H        0.74720    0.42480    0.20770    1.000
    C66      C        0.25470    0.04910    0.33210    1.000
    H61      H        0.30140    0.02760    0.37040    1.000
    H62      H        0.24540    0.08140    0.41060    1.000
    N21      N        0.42115    0.24380    0.22420    1.000
    C67      C        0.19440    0.99530    0.31340    1.000
    N22      N        0.08560    0.89620    0.28400    1.000
    C68      C        0.31730    0.14020    0.20550    1.000
    C69      C        0.37040    0.23490    0.09700    1.000
    H63      H        0.37000    0.26400    0.01260    1.000
    C70      C        0.26010    0.08390    0.19390    1.000
    H64      H        0.27070    0.05140    0.11710    1.000
    H65      H        0.21250    0.10340    0.15390    1.000
    C71      C        0.37150    0.14780    0.33590    1.000
    H66      H        0.37410    0.11810    0.41980    1.000
    C72      C        0.14740    0.88630    0.22780    1.000
    H67      H        0.15340    0.84600    0.17600    1.000
    C73      C        0.13020    0.00460    0.37020    1.000
    H68      H        0.12180    0.04510    0.41860    1.000
    C74      C        0.42140    0.19990    0.34070    1.000
    H69      H        0.45700    0.20460    0.42980    1.000
    C75      C        0.07820    0.95460    0.35610    1.000
    H70      H        0.03600    0.96180    0.39870    1.000
    C76      C        0.31800    0.18410    0.08490    1.000
    H71      H        0.28330    0.18000    0.99420    1.000
    N23      N        0.49983    0.32780    0.48960    1.000
    C77      C        0.50020    0.34270    0.61700    1.000
    N24      N        0.47890    0.36700    0.73770    1.000
    C78      C        0.20380    0.93420    0.24390    1.000
    H72      H        0.24720    0.92480    0.20770    1.000
    C79      C        0.24530    0.54910    0.16790    1.000
    H73      H        0.19860    0.52760    0.12960    1.000
    H74      H        0.25460    0.58140    0.08940    1.000
    N25      N        0.07885    0.74380    0.27580    1.000
    C80      C        0.30560    0.49530    0.18660    1.000
    N26      N        0.41440    0.39620    0.21600    1.000
    C81      C        0.18270    0.64020    0.29450    1.000
    C82      C        0.12960    0.73490    0.40300    1.000
    H75      H        0.13000    0.76400    0.48740    1.000
    C83      C        0.23990    0.58390    0.30610    1.000
    H76      H        0.22930    0.55140    0.38290    1.000
    H77      H        0.28750    0.60340    0.34610    1.000
    C84      C        0.12850    0.64780    0.16410    1.000
    H78      H        0.12590    0.61810    0.08020    1.000
    C85      C        0.35260    0.38630    0.27220    1.000
    H79      H        0.34660    0.34600    0.32400    1.000
    C86      C        0.36980    0.50460    0.12980    1.000
    H80      H        0.37820    0.54510    0.08140    1.000
    C87      C        0.07860    0.69990    0.15930    1.000
    H81      H        0.04300    0.70460    0.07020    1.000
    C88      C        0.42180    0.45460    0.14390    1.000
    H82      H        0.46400    0.46180    0.10130    1.000
    C89      C        0.18200    0.68410    0.41510    1.000
    H83      H        0.21670    0.68000    0.50580    1.000
    N27      N        0.00017    0.82780    0.01040    1.000
    C90      C        0.99980    0.84270    0.88300    1.000
    N28      N        0.02110    0.86700    0.76230    1.000
    C91      C        0.29620    0.43420    0.25610    1.000
    H84      H        0.25280    0.42480    0.29230    1.000
    C92      C        0.74530    0.04910    0.16790    1.000
    H85      H        0.69860    0.02760    0.12960    1.000
    H86      H        0.75460    0.08140    0.08940    1.000
    N29      N        0.57885    0.24380    0.27580    1.000
    C93      C        0.80560    0.99530    0.18660    1.000
    N30      N        0.91440    0.89620    0.21600    1.000
    C94      C        0.68270    0.14020    0.29450    1.000
    C95      C        0.62960    0.23490    0.40300    1.000
    H87      H        0.63000    0.26400    0.48740    1.000
    C96      C        0.73990    0.08390    0.30610    1.000
    H88      H        0.72930    0.05140    0.38290    1.000
    H89      H        0.78750    0.10340    0.34610    1.000
    C97      C        0.62850    0.14780    0.16410    1.000
    H90      H        0.62590    0.11810    0.08020    1.000
    C98      C        0.85260    0.88630    0.27220    1.000
    H91      H        0.84660    0.84600    0.32400    1.000
    C99      C        0.86980    0.00460    0.12980    1.000
    H92      H        0.87820    0.04510    0.08140    1.000
    C100     C        0.57860    0.19990    0.15930    1.000
    H93      H        0.54300    0.20460    0.07020    1.000
    C101     C        0.92180    0.95460    0.14390    1.000
    H94      H        0.96400    0.96180    0.10130    1.000
    C102     C        0.68200    0.18410    0.41510    1.000
    H95      H        0.71670    0.18000    0.50580    1.000
    N31      N        0.50017    0.32780    0.01040    1.000
    C103     C        0.49980    0.34270    0.88300    1.000
    N32      N        0.52110    0.36700    0.76230    1.000
    C104     C        0.79620    0.93420    0.25610    1.000
    H96      H        0.75280    0.92480    0.29230    1.000
    Ni3      Ni       0.00000    0.82115    0.25000    1.000
    Ni4      Ni       0.50000    0.32115    0.25000    1.000
