# CIF file generated by openbabel 3.1.0, see https://openbabel.org
data_I
_chemical_name_common 'GEVXIQ_clean'
_cell_length_a 10.0662
_cell_length_b 11.4492
_cell_length_c 12.7746
_cell_angle_alpha 108.73
_cell_angle_beta 96.948
_cell_angle_gamma 96.802
_space_group_name_H-M_alt 'P 1'
_space_group_name_Hall 'P 1'
loop_
    _symmetry_equiv_pos_as_xyz
    x,y,z
loop_
    _atom_site_label
    _atom_site_type_symbol
    _atom_site_fract_x
    _atom_site_fract_y
    _atom_site_fract_z
    _atom_site_occupancy
    Gd1      Gd       0.93186    0.92366    0.61605    1.000
    Gd2      Gd       0.54836    0.40184    0.24178    1.000
    Gd3      Gd       0.06814    0.07634    0.38395    1.000
    Gd4      Gd       0.45164    0.59816    0.75822    1.000
    H1       H        0.86100    0.44600    0.37500    1.000
    H2       H        0.23800    0.67600    0.31900    1.000
    H3       H        0.98000    0.69300    0.11000    1.000
    H4       H        0.13900    0.55400    0.62500    1.000
    H5       H        0.76200    0.32400    0.68100    1.000
    H6       H        0.02000    0.30700    0.89000    1.000
    C1       C        0.06500    0.82200    0.37590    1.000
    C2       C        0.04830    0.68600    0.36350    1.000
    C3       C        0.93160    0.61540    0.37490    1.000
    C4       C        0.80220    0.66960    0.39350    1.000
    C5       C        0.93410    0.49100    0.36650    1.000
    C6       C        0.04850    0.43610    0.34530    1.000
    C7       C        0.05260    0.30630    0.34800    1.000
    C8       C        0.16180    0.50570    0.32780    1.000
    C9       C        0.28800    0.45570    0.29640    1.000
    C10      C        0.16050    0.62910    0.33580    1.000
    C11      C        0.77080    0.53720    0.11600    1.000
    C12      C        0.88600    0.51690    0.05200    1.000
    C13      C        0.89860    0.39780    0.98130    1.000
    C14      C        0.78930    0.28520    0.95440    1.000
    C15      C        0.98790    0.61700    0.06900    1.000
    C16      C        0.93500    0.17800    0.62410    1.000
    C17      C        0.95170    0.31400    0.63650    1.000
    C18      C        0.06840    0.38460    0.62510    1.000
    C19      C        0.19780    0.33040    0.60650    1.000
    C20      C        0.06590    0.50900    0.63350    1.000
    C21      C        0.95150    0.56390    0.65470    1.000
    C22      C        0.94740    0.69370    0.65200    1.000
    C23      C        0.83820    0.49430    0.67220    1.000
    C24      C        0.71200    0.54430    0.70360    1.000
    C25      C        0.83950    0.37090    0.66420    1.000
    C26      C        0.22920    0.46280    0.88400    1.000
    C27      C        0.11400    0.48310    0.94800    1.000
    C28      C        0.10140    0.60220    0.01870    1.000
    C29      C        0.21070    0.71480    0.04560    1.000
    C30      C        0.01210    0.38300    0.93100    1.000
    O1       O        0.07550    0.90510    0.47340    1.000
    O2       O        0.07800    0.85370    0.29290    1.000
    O3       O        0.81450    0.78790    0.43530    1.000
    O4       O        0.69120    0.59690    0.36750    1.000
    O5       O        0.94480    0.23710    0.34750    1.000
    O6       O        0.16520    0.26960    0.35480    1.000
    O7       O        0.28860    0.38810    0.19750    1.000
    O8       O        0.39560    0.49280    0.36960    1.000
    O9       O        0.71870    0.44600    0.14070    1.000
    O10      O        0.73490    0.64330    0.14450    1.000
    O11      O        0.82270    0.19370    0.98000    1.000
    O12      O        0.67370    0.28830    0.90600    1.000
    O13      O        0.92450    0.09490    0.52660    1.000
    O14      O        0.92200    0.14630    0.70710    1.000
    O15      O        0.18550    0.21210    0.56470    1.000
    O16      O        0.30880    0.40310    0.63250    1.000
    O17      O        0.05520    0.76290    0.65250    1.000
    O18      O        0.83480    0.73040    0.64520    1.000
    O19      O        0.71140    0.61190    0.80250    1.000
    O20      O        0.60440    0.50720    0.63040    1.000
    O21      O        0.28130    0.55400    0.85930    1.000
    O22      O        0.26510    0.35670    0.85550    1.000
    O23      O        0.17730    0.80630    0.02000    1.000
    O24      O        0.32630    0.71170    0.09400    1.000
