# CIF file generated by openbabel 3.1.0, see https://openbabel.org
data_I
_chemical_name_common 'image0'
_cell_length_a 12.5693
_cell_length_b 12.5693
_cell_length_c 8.2216
_cell_angle_alpha 90
_cell_angle_beta 90
_cell_angle_gamma 120
_space_group_name_H-M_alt 'P 1'
_space_group_name_Hall 'P 1'
loop_
    _symmetry_equiv_pos_as_xyz
    x,y,z
loop_
    _atom_site_label
    _atom_site_type_symbol
    _atom_site_fract_x
    _atom_site_fract_y
    _atom_site_fract_z
    _atom_site_occupancy
    Mg1      Mg       0.33431    0.33230    0.58747    1.000
    O1       O        0.42331    0.26452    0.44207    1.000
    O2       O        0.42420    0.15567    0.22998    1.000
    O3       O        0.40028    0.48903    0.44095    1.000
    O4       O        0.50766    0.59967    0.22888    1.000
    O5       O        0.17606    0.24059    0.44463    1.000
    O6       O        0.06923    0.24535    0.23241    1.000
    C1       C        0.37303    0.18661    0.33390    1.000
    H1       H        0.28680    0.14650    0.32980    1.000
    C2       C        0.47645    0.51604    0.32990    1.000
    H2       H        0.51440    0.46810    0.32150    1.000
    C3       C        0.14338    0.29332    0.34660    1.000
    H3       H        0.17820    0.37860    0.35960    1.000
    Mg2      Mg       0.66770    0.00201    0.58747    1.000
    O7       O        0.73548    0.15879    0.44207    1.000
    O8       O        0.84433    0.26853    0.22998    1.000
    O9       O        0.51097    0.91125    0.44095    1.000
    O10      O        0.40033    0.90799    0.22888    1.000
    O11      O        0.75941    0.93547    0.44463    1.000
    O12      O        0.75465    0.82388    0.23241    1.000
    C4       C        0.81339    0.18642    0.33390    1.000
    H4       H        0.85350    0.14030    0.32980    1.000
    C5       C        0.48396    0.96041    0.32990    1.000
    H5       H        0.53190    0.04630    0.32150    1.000
    C6       C        0.70668    0.85006    0.34660    1.000
    H6       H        0.62140    0.79960    0.35960    1.000
    Mg3      Mg       0.99799    0.66569    0.58747    1.000
    O13      O        0.84121    0.57669    0.44207    1.000
    O14      O        0.73147    0.57580    0.22998    1.000
    O15      O        0.08875    0.59972    0.44095    1.000
    O16      O        0.09201    0.49234    0.22888    1.000
    O17      O        0.06453    0.82394    0.44463    1.000
    O18      O        0.17612    0.93077    0.23241    1.000
    C7       C        0.81358    0.62697    0.33390    1.000
    H7       H        0.85970    0.71320    0.32980    1.000
    C8       C        0.03959    0.52355    0.32990    1.000
    H8       H        0.95370    0.48560    0.32150    1.000
    C9       C        0.14994    0.85662    0.34660    1.000
    H9       H        0.20040    0.82180    0.35960    1.000
    Mg4      Mg       0.66569    0.66770    0.08747    1.000
    O19      O        0.57669    0.73548    0.94207    1.000
    O20      O        0.57580    0.84433    0.72998    1.000
    O21      O        0.59972    0.51097    0.94095    1.000
    O22      O        0.49234    0.40033    0.72888    1.000
    O23      O        0.82394    0.75941    0.94463    1.000
    O24      O        0.93077    0.75465    0.73241    1.000
    C10      C        0.62697    0.81339    0.83390    1.000
    H10      H        0.71320    0.85350    0.82980    1.000
    C11      C        0.52355    0.48396    0.82990    1.000
    H11      H        0.48560    0.53190    0.82150    1.000
    C12      C        0.85662    0.70668    0.84660    1.000
    H12      H        0.82180    0.62140    0.85960    1.000
    Mg5      Mg       0.33230    0.99799    0.08747    1.000
    O25      O        0.26452    0.84121    0.94207    1.000
    O26      O        0.15567    0.73147    0.72998    1.000
    O27      O        0.48903    0.08875    0.94095    1.000
    O28      O        0.59967    0.09201    0.72888    1.000
    O29      O        0.24059    0.06453    0.94463    1.000
    O30      O        0.24535    0.17612    0.73241    1.000
    C13      C        0.18661    0.81358    0.83390    1.000
    H13      H        0.14650    0.85970    0.82980    1.000
    C14      C        0.51604    0.03959    0.82990    1.000
    H14      H        0.46810    0.95370    0.82150    1.000
    C15      C        0.29332    0.14994    0.84660    1.000
    H15      H        0.37860    0.20040    0.85960    1.000
    Mg6      Mg       0.00201    0.33431    0.08747    1.000
    O31      O        0.15879    0.42331    0.94207    1.000
    O32      O        0.26853    0.42420    0.72998    1.000
    O33      O        0.91125    0.40028    0.94095    1.000
    O34      O        0.90799    0.50766    0.72888    1.000
    O35      O        0.93547    0.17606    0.94463    1.000
    O36      O        0.82388    0.06923    0.73241    1.000
    C16      C        0.18642    0.37303    0.83390    1.000
    H16      H        0.14030    0.28680    0.82980    1.000
    C17      C        0.96041    0.47645    0.82990    1.000
    H17      H        0.04630    0.51440    0.82150    1.000
    C18      C        0.85006    0.14338    0.84660    1.000
    H18      H        0.79960    0.17820    0.85960    1.000
