# CIF file generated by openbabel 3.1.0, see https://openbabel.org
data_I
_chemical_name_common 'FIGXEY_clean'
_cell_length_a 6.592
_cell_length_b 6.6862
_cell_length_c 6.6862
_cell_angle_alpha 115.365
_cell_angle_beta 106.435
_cell_angle_gamma 73.5646
_space_group_name_H-M_alt 'P 1'
_space_group_name_Hall 'P 1'
loop_
    _symmetry_equiv_pos_as_xyz
    x,y,z
loop_
    _atom_site_label
    _atom_site_type_symbol
    _atom_site_fract_x
    _atom_site_fract_y
    _atom_site_fract_z
    _atom_site_occupancy
    Dy1      Dy       0.00000    0.00000    0.00000    1.000
    H1       H        0.88600    0.46400    0.84600    1.000
    H2       H        0.11400    0.84600    0.46400    1.000
    H3       H        0.50000    0.07000    0.07000    1.000
    C1       C        0.03490    0.46770    0.93770    1.000
    C2       C        0.96510    0.93770    0.46770    1.000
    C3       C        0.50000    0.92990    0.92990    1.000
    O1       O        0.12030    0.31120    0.00380    1.000
    O2       O        0.11680    0.62980    0.97480    1.000
    O3       O        0.66330    0.85930    0.84490    1.000
    O4       O        0.87970    0.00380    0.31120    1.000
    O5       O        0.88320    0.97480    0.62980    1.000
    O6       O        0.33670    0.84490    0.85930    1.000
