# CIF file generated by openbabel 3.1.0, see https://openbabel.org
data_I
_chemical_name_common 'image0'
_cell_length_a 14.583
_cell_length_b 23.241
_cell_length_c 15.6338
_cell_angle_alpha 90
_cell_angle_beta 106.99
_cell_angle_gamma 90
_space_group_name_H-M_alt 'P 1'
_space_group_name_Hall 'P 1'
loop_
    _symmetry_equiv_pos_as_xyz
    x,y,z
loop_
    _atom_site_label
    _atom_site_type_symbol
    _atom_site_fract_x
    _atom_site_fract_y
    _atom_site_fract_z
    _atom_site_occupancy
    Cd1      Cd       0.23637    0.43763    0.58375    1.000
    Cd2      Cd       0.25806    0.30106    0.69640    1.000
    C1       C        0.15620    0.53600    0.13220    1.000
    C2       C        0.23710    0.50890    0.18690    1.000
    H1       H        0.29000    0.50200    0.16650    1.000
    C3       C        0.23800    0.49210    0.27270    1.000
    H2       H        0.29020    0.47130    0.30730    1.000
    C4       C        0.16650    0.50480    0.30710    1.000
    C5       C        0.08700    0.53330    0.25210    1.000
    H3       H        0.03590    0.54250    0.27380    1.000
    C6       C        0.08340    0.54780    0.16630    1.000
    H4       H        0.02920    0.56640    0.13060    1.000
    C7       C        0.16850    0.48790    0.39980    1.000
    C8       C        0.18570    0.50760    0.99120    1.000
    C9       C        0.22680    0.52430    0.92570    1.000
    H5       H        0.23590    0.56320    0.91690    1.000
    C10      C        0.25390    0.48470    0.87440    1.000
    H6       H        0.28100    0.49690    0.83060    1.000
    C11      C        0.24170    0.42630    0.88600    1.000
    C12      C        0.20180    0.41090    0.94920    1.000
    H7       H        0.19450    0.37190    0.95860    1.000
    C13      C        0.17050    0.45000    0.00180    1.000
    H8       H        0.14010    0.43760    0.04310    1.000
    C14      C        0.26690    0.38270    0.82500    1.000
    C15      C        0.87510    0.72080    0.88080    1.000
    C16      C        0.95300    0.67740    0.92020    1.000
    C17      C        0.96090    0.62730    0.87580    1.000
    H9       H        0.91990    0.62110    0.81870    1.000
    C18      C        0.02830    0.58640    0.91440    1.000
    H10      H        0.03240    0.55290    0.88310    1.000
    C19      C        0.08940    0.59440    0.99850    1.000
    C20      C        0.08590    0.64620    0.03950    1.000
    H11      H        0.13090    0.65370    0.09420    1.000
    C21      C        0.02020    0.68620    0.00360    1.000
    H12      H        0.01900    0.72040    0.03430    1.000
    C22      C        0.84290    0.29340    0.66340    1.000
    C23      C        0.82440    0.31370    0.57740    1.000
    H13      H        0.76400    0.30910    0.53670    1.000
    C24      C        0.89640    0.34100    0.55210    1.000
    H14      H        0.88390    0.35520    0.49420    1.000
    C25      C        0.98680    0.34750    0.61170    1.000
    C26      C        0.00190    0.32660    0.69670    1.000
    H15      H        0.06210    0.33090    0.73780    1.000
    C27      C        0.93140    0.29950    0.72320    1.000
    H16      H        0.94380    0.28550    0.78120    1.000
    C28      C        0.06090    0.37861    0.58270    1.000
    C29      C        0.78270    0.21160    0.73080    1.000
    C30      C        0.85270    0.17330    0.71960    1.000
    H17      H        0.89070    0.18340    0.68340    1.000
    C31      C        0.86520    0.12050    0.76210    1.000
    H18      H        0.91430    0.09640    0.75750    1.000
    C32      C        0.80650    0.10370    0.81070    1.000
    C33      C        0.73900    0.14110    0.82410    1.000
    H19      H        0.70040    0.12950    0.85890    1.000
    C34      C        0.72750    0.19470    0.78730    1.000
    H20      H        0.68350    0.22010    0.79940    1.000
    C35      C        0.81680    0.04440    0.85110    1.000
    C36      C        0.67630    0.29150    0.66690    1.000
    C37      C        0.59290    0.25930    0.63180    1.000
    H21      H        0.59710    0.22030    0.61990    1.000
    C38      C        0.50310    0.28560    0.61440    1.000
    H22      H        0.44750    0.26380    0.59380    1.000
    C39      C        0.49710    0.34310    0.62790    1.000
    C40      C        0.57970    0.37540    0.66070    1.000
    H23      H        0.57570    0.41460    0.67110    1.000
    C41      C        0.66800    0.34920    0.67780    1.000
    H24      H        0.72320    0.37140    0.69720    1.000
    C42      C        0.40140    0.37060    0.61030    1.000
    N1       N        0.15370    0.55012    0.04320    1.000
    N2       N        0.76670    0.26527    0.68920    1.000
    O1       O        0.11090    0.51543    0.43320    1.000
    O2       O        0.22370    0.44960    0.43880    1.000
    O3       O        0.31280    0.39780    0.77390    1.000
    O4       O        0.23770    0.33120    0.82830    1.000
    O5       O        0.85010    0.75425    0.93230    1.000
    O6       O        0.83700    0.72015    0.79860    1.000
    O7       O        0.04030    0.40536    0.51240    1.000
    O8       O        0.14690    0.37612    0.63470    1.000
    O9       O        0.89120    0.01696    0.86420    1.000
    O10      O        0.74050    0.02532    0.86670    1.000
    O11      O        0.32780    0.34112    0.59540    1.000
    O12      O        0.39680    0.42356    0.61130    1.000
    Cd3      Cd       0.76363    0.93763    0.91625    1.000
    Cd4      Cd       0.74194    0.80106    0.80360    1.000
    C43      C        0.84380    0.03600    0.36780    1.000
    C44      C        0.76290    0.00890    0.31310    1.000
    H25      H        0.71000    0.00200    0.33350    1.000
    C45      C        0.76200    0.99210    0.22730    1.000
    H26      H        0.70980    0.97130    0.19270    1.000
    C46      C        0.83350    0.00480    0.19290    1.000
    C47      C        0.91300    0.03330    0.24790    1.000
    H27      H        0.96410    0.04250    0.22620    1.000
    C48      C        0.91660    0.04780    0.33370    1.000
    H28      H        0.97080    0.06640    0.36940    1.000
    C49      C        0.83150    0.98790    0.10020    1.000
    C50      C        0.81430    0.00760    0.50880    1.000
    C51      C        0.77320    0.02430    0.57430    1.000
    H29      H        0.76410    0.06320    0.58310    1.000
    C52      C        0.74610    0.98470    0.62560    1.000
    H30      H        0.71900    0.99690    0.66940    1.000
    C53      C        0.75830    0.92630    0.61400    1.000
    C54      C        0.79820    0.91090    0.55080    1.000
    H31      H        0.80550    0.87190    0.54140    1.000
    C55      C        0.82950    0.95000    0.49820    1.000
    H32      H        0.85990    0.93760    0.45690    1.000
    C56      C        0.73310    0.88270    0.67500    1.000
    C57      C        0.12490    0.22080    0.61920    1.000
    C58      C        0.04700    0.17740    0.57980    1.000
    C59      C        0.03910    0.12730    0.62420    1.000
    H33      H        0.08010    0.12110    0.68130    1.000
    C60      C        0.97170    0.08640    0.58560    1.000
    H34      H        0.96760    0.05290    0.61690    1.000
    C61      C        0.91060    0.09440    0.50150    1.000
    C62      C        0.91410    0.14620    0.46050    1.000
    H35      H        0.86910    0.15370    0.40580    1.000
    C63      C        0.97980    0.18620    0.49640    1.000
    H36      H        0.98100    0.22040    0.46570    1.000
    C64      C        0.15710    0.79340    0.83660    1.000
    C65      C        0.17560    0.81370    0.92260    1.000
    H37      H        0.23600    0.80910    0.96330    1.000
    C66      C        0.10360    0.84100    0.94790    1.000
    H38      H        0.11610    0.85520    0.00580    1.000
    C67      C        0.01320    0.84750    0.88830    1.000
    C68      C        0.99810    0.82660    0.80330    1.000
    H39      H        0.93790    0.83090    0.76220    1.000
    C69      C        0.06860    0.79950    0.77680    1.000
    H40      H        0.05620    0.78550    0.71880    1.000
    C70      C        0.93910    0.87861    0.91730    1.000
    C71      C        0.21730    0.71160    0.76920    1.000
    C72      C        0.14730    0.67330    0.78040    1.000
    H41      H        0.10930    0.68340    0.81660    1.000
    C73      C        0.13480    0.62050    0.73790    1.000
    H42      H        0.08570    0.59640    0.74250    1.000
    C74      C        0.19350    0.60370    0.68930    1.000
    C75      C        0.26100    0.64110    0.67590    1.000
    H43      H        0.29960    0.62950    0.64110    1.000
    C76      C        0.27250    0.69470    0.71270    1.000
    H44      H        0.31650    0.72010    0.70060    1.000
    C77      C        0.18320    0.54440    0.64890    1.000
    C78      C        0.32370    0.79150    0.83310    1.000
    C79      C        0.40710    0.75930    0.86820    1.000
    H45      H        0.40290    0.72030    0.88010    1.000
    C80      C        0.49690    0.78560    0.88560    1.000
    H46      H        0.55250    0.76380    0.90620    1.000
    C81      C        0.50290    0.84310    0.87210    1.000
    C82      C        0.42030    0.87540    0.83930    1.000
    H47      H        0.42430    0.91460    0.82890    1.000
    C83      C        0.33200    0.84920    0.82220    1.000
    H48      H        0.27680    0.87140    0.80280    1.000
    C84      C        0.59860    0.87060    0.88970    1.000
    N3       N        0.84630    0.05012    0.45680    1.000
    N4       N        0.23330    0.76527    0.81080    1.000
    O13      O        0.88910    0.01543    0.06680    1.000
    O14      O        0.77630    0.94960    0.06120    1.000
    O15      O        0.68720    0.89780    0.72610    1.000
    O16      O        0.76230    0.83120    0.67170    1.000
    O17      O        0.14990    0.25425    0.56770    1.000
    O18      O        0.16300    0.22015    0.70140    1.000
    O19      O        0.95970    0.90536    0.98760    1.000
    O20      O        0.85310    0.87612    0.86530    1.000
    O21      O        0.10880    0.51696    0.63580    1.000
    O22      O        0.25950    0.52532    0.63330    1.000
    O23      O        0.67220    0.84112    0.90460    1.000
    O24      O        0.60320    0.92356    0.88870    1.000
    Cd5      Cd       0.76363    0.56237    0.41625    1.000
    Cd6      Cd       0.74194    0.69894    0.30360    1.000
    C85      C        0.84380    0.46400    0.86780    1.000
    C86      C        0.76290    0.49110    0.81310    1.000
    H49      H        0.71000    0.49800    0.83350    1.000
    C87      C        0.76200    0.50790    0.72730    1.000
    H50      H        0.70980    0.52870    0.69270    1.000
    C88      C        0.83350    0.49520    0.69290    1.000
    C89      C        0.91300    0.46670    0.74790    1.000
    H51      H        0.96410    0.45750    0.72620    1.000
    C90      C        0.91660    0.45220    0.83370    1.000
    H52      H        0.97080    0.43360    0.86940    1.000
    C91      C        0.83150    0.51210    0.60020    1.000
    C92      C        0.81430    0.49240    0.00880    1.000
    C93      C        0.77320    0.47570    0.07430    1.000
    H53      H        0.76410    0.43680    0.08310    1.000
    C94      C        0.74610    0.51530    0.12560    1.000
    H54      H        0.71900    0.50310    0.16940    1.000
    C95      C        0.75830    0.57370    0.11400    1.000
    C96      C        0.79820    0.58910    0.05080    1.000
    H55      H        0.80550    0.62810    0.04140    1.000
    C97      C        0.82950    0.55000    0.99820    1.000
    H56      H        0.85990    0.56240    0.95690    1.000
    C98      C        0.73310    0.61730    0.17500    1.000
    C99      C        0.12490    0.27920    0.11920    1.000
    C100     C        0.04700    0.32260    0.07980    1.000
    C101     C        0.03910    0.37270    0.12420    1.000
    H57      H        0.08010    0.37890    0.18130    1.000
    C102     C        0.97170    0.41360    0.08560    1.000
    H58      H        0.96760    0.44710    0.11690    1.000
    C103     C        0.91060    0.40560    0.00150    1.000
    C104     C        0.91410    0.35380    0.96050    1.000
    H59      H        0.86910    0.34630    0.90580    1.000
    C105     C        0.97980    0.31380    0.99640    1.000
    H60      H        0.98100    0.27960    0.96570    1.000
    C106     C        0.15710    0.70660    0.33660    1.000
    C107     C        0.17560    0.68630    0.42260    1.000
    H61      H        0.23600    0.69090    0.46330    1.000
    C108     C        0.10360    0.65900    0.44790    1.000
    H62      H        0.11610    0.64480    0.50580    1.000
    C109     C        0.01320    0.65250    0.38830    1.000
    C110     C        0.99810    0.67340    0.30330    1.000
    H63      H        0.93790    0.66910    0.26220    1.000
    C111     C        0.06860    0.70050    0.27680    1.000
    H64      H        0.05620    0.71450    0.21880    1.000
    C112     C        0.93910    0.62139    0.41730    1.000
    C113     C        0.21730    0.78840    0.26920    1.000
    C114     C        0.14730    0.82670    0.28040    1.000
    H65      H        0.10930    0.81660    0.31660    1.000
    C115     C        0.13480    0.87950    0.23790    1.000
    H66      H        0.08570    0.90360    0.24250    1.000
    C116     C        0.19350    0.89630    0.18930    1.000
    C117     C        0.26100    0.85890    0.17590    1.000
    H67      H        0.29960    0.87050    0.14110    1.000
    C118     C        0.27250    0.80530    0.21270    1.000
    H68      H        0.31650    0.77990    0.20060    1.000
    C119     C        0.18320    0.95560    0.14890    1.000
    C120     C        0.32370    0.70850    0.33310    1.000
    C121     C        0.40710    0.74070    0.36820    1.000
    H69      H        0.40290    0.77970    0.38010    1.000
    C122     C        0.49690    0.71440    0.38560    1.000
    H70      H        0.55250    0.73620    0.40620    1.000
    C123     C        0.50290    0.65690    0.37210    1.000
    C124     C        0.42030    0.62460    0.33930    1.000
    H71      H        0.42430    0.58540    0.32890    1.000
    C125     C        0.33200    0.65080    0.32220    1.000
    H72      H        0.27680    0.62860    0.30280    1.000
    C126     C        0.59860    0.62940    0.38970    1.000
    N5       N        0.84630    0.44988    0.95680    1.000
    N6       N        0.23330    0.73473    0.31080    1.000
    O25      O        0.88910    0.48457    0.56680    1.000
    O26      O        0.77630    0.55040    0.56120    1.000
    O27      O        0.68720    0.60220    0.22610    1.000
    O28      O        0.76230    0.66880    0.17170    1.000
    O29      O        0.14990    0.24575    0.06770    1.000
    O30      O        0.16300    0.27985    0.20140    1.000
    O31      O        0.95970    0.59464    0.48760    1.000
    O32      O        0.85310    0.62388    0.36530    1.000
    O33      O        0.10880    0.98304    0.13580    1.000
    O34      O        0.25950    0.97468    0.13330    1.000
    O35      O        0.67220    0.65888    0.40460    1.000
    O36      O        0.60320    0.57644    0.38870    1.000
    Cd7      Cd       0.23637    0.06237    0.08375    1.000
    Cd8      Cd       0.25806    0.19894    0.19640    1.000
    C127     C        0.15620    0.96400    0.63220    1.000
    C128     C        0.23710    0.99110    0.68690    1.000
    H73      H        0.29000    0.99800    0.66650    1.000
    C129     C        0.23800    0.00790    0.77270    1.000
    H74      H        0.29020    0.02870    0.80730    1.000
    C130     C        0.16650    0.99520    0.80710    1.000
    C131     C        0.08700    0.96670    0.75210    1.000
    H75      H        0.03590    0.95750    0.77380    1.000
    C132     C        0.08340    0.95220    0.66630    1.000
    H76      H        0.02920    0.93360    0.63060    1.000
    C133     C        0.16850    0.01210    0.89980    1.000
    C134     C        0.18570    0.99240    0.49120    1.000
    C135     C        0.22680    0.97570    0.42570    1.000
    H77      H        0.23590    0.93680    0.41690    1.000
    C136     C        0.25390    0.01530    0.37440    1.000
    H78      H        0.28100    0.00310    0.33060    1.000
    C137     C        0.24170    0.07370    0.38600    1.000
    C138     C        0.20180    0.08910    0.44920    1.000
    H79      H        0.19450    0.12810    0.45860    1.000
    C139     C        0.17050    0.05000    0.50180    1.000
    H80      H        0.14010    0.06240    0.54310    1.000
    C140     C        0.26690    0.11730    0.32500    1.000
    C141     C        0.87510    0.77920    0.38080    1.000
    C142     C        0.95300    0.82260    0.42020    1.000
    C143     C        0.96090    0.87270    0.37580    1.000
    H81      H        0.91990    0.87890    0.31870    1.000
    C144     C        0.02830    0.91360    0.41440    1.000
    H82      H        0.03240    0.94710    0.38310    1.000
    C145     C        0.08940    0.90560    0.49850    1.000
    C146     C        0.08590    0.85380    0.53950    1.000
    H83      H        0.13090    0.84630    0.59420    1.000
    C147     C        0.02020    0.81380    0.50360    1.000
    H84      H        0.01900    0.77960    0.53430    1.000
    C148     C        0.84290    0.20660    0.16340    1.000
    C149     C        0.82440    0.18630    0.07740    1.000
    H85      H        0.76400    0.19090    0.03670    1.000
    C150     C        0.89640    0.15900    0.05210    1.000
    H86      H        0.88390    0.14480    0.99420    1.000
    C151     C        0.98680    0.15250    0.11170    1.000
    C152     C        0.00190    0.17340    0.19670    1.000
    H87      H        0.06210    0.16910    0.23780    1.000
    C153     C        0.93140    0.20050    0.22320    1.000
    H88      H        0.94380    0.21450    0.28120    1.000
    C154     C        0.06090    0.12139    0.08270    1.000
    C155     C        0.78270    0.28840    0.23080    1.000
    C156     C        0.85270    0.32670    0.21960    1.000
    H89      H        0.89070    0.31660    0.18340    1.000
    C157     C        0.86520    0.37950    0.26210    1.000
    H90      H        0.91430    0.40360    0.25750    1.000
    C158     C        0.80650    0.39630    0.31070    1.000
    C159     C        0.73900    0.35890    0.32410    1.000
    H91      H        0.70040    0.37050    0.35890    1.000
    C160     C        0.72750    0.30530    0.28730    1.000
    H92      H        0.68350    0.27990    0.29940    1.000
    C161     C        0.81680    0.45560    0.35110    1.000
    C162     C        0.67630    0.20850    0.16690    1.000
    C163     C        0.59290    0.24070    0.13180    1.000
    H93      H        0.59710    0.27970    0.11990    1.000
    C164     C        0.50310    0.21440    0.11440    1.000
    H94      H        0.44750    0.23620    0.09380    1.000
    C165     C        0.49710    0.15690    0.12790    1.000
    C166     C        0.57970    0.12460    0.16070    1.000
    H95      H        0.57570    0.08540    0.17110    1.000
    C167     C        0.66800    0.15080    0.17780    1.000
    H96      H        0.72320    0.12860    0.19720    1.000
    C168     C        0.40140    0.12940    0.11030    1.000
    N7       N        0.15370    0.94988    0.54320    1.000
    N8       N        0.76670    0.23473    0.18920    1.000
    O37      O        0.11090    0.98457    0.93320    1.000
    O38      O        0.22370    0.05040    0.93880    1.000
    O39      O        0.31280    0.10220    0.27390    1.000
    O40      O        0.23770    0.16880    0.32830    1.000
    O41      O        0.85010    0.74575    0.43230    1.000
    O42      O        0.83700    0.77985    0.29860    1.000
    O43      O        0.04030    0.09464    0.01240    1.000
    O44      O        0.14690    0.12388    0.13470    1.000
    O45      O        0.89120    0.48304    0.36420    1.000
    O46      O        0.74050    0.47468    0.36670    1.000
    O47      O        0.32780    0.15888    0.09540    1.000
    O48      O        0.39680    0.07644    0.11130    1.000
    Cd9      Cd       0.00000    0.50000    0.50000    1.000
    Cd10     Cd       0.00000    0.00000    0.00000    1.000
