# CIF file generated by openbabel 3.1.0, see https://openbabel.org
data_I
_chemical_name_common 'image0'
_cell_length_a 16.0445
_cell_length_b 11.8985
_cell_length_c 18.3896
_cell_angle_alpha 90
_cell_angle_beta 104.452
_cell_angle_gamma 90
_space_group_name_H-M_alt 'P 1'
_space_group_name_Hall 'P 1'
loop_
    _symmetry_equiv_pos_as_xyz
    x,y,z
loop_
    _atom_site_label
    _atom_site_type_symbol
    _atom_site_fract_x
    _atom_site_fract_y
    _atom_site_fract_z
    _atom_site_occupancy
    Mn1      Mn       0.14315    0.70904    0.43777    1.000
    O1       O        0.98450    0.70620    0.15080    1.000
    O2       O        0.32840    0.33250    0.14120    1.000
    O3       O        0.21310    0.58930    0.39000    1.000
    C1       C        0.21290    0.44980    0.15140    1.000
    O4       O        0.34010    0.59070    0.36210    1.000
    C2       C        0.09490    0.57030    0.15720    1.000
    O5       O        0.21640    0.33820    0.04580    1.000
    O6       O        0.96220    0.57710    0.06340    1.000
    C3       C        0.21610    0.55390    0.26460    1.000
    C4       C        0.13270    0.49420    0.11850    1.000
    H1       H        0.10410    0.47280    0.07010    1.000
    C5       C        0.25930    0.58120    0.34530    1.000
    O7       O        0.08640    0.83300    0.49700    1.000
    H2       H        0.11870    0.84420    0.53860    1.000
    C6       C        0.25510    0.36840    0.10960    1.000
    C7       C        0.25490    0.48200    0.22390    1.000
    H3       H        0.30990    0.45480    0.24540    1.000
    C8       C        0.00870    0.62060    0.12110    1.000
    C9       C        0.13570    0.59830    0.23100    1.000
    H4       H        0.10910    0.64690    0.25780    1.000
    Mn2      Mn       0.64315    0.20904    0.43777    1.000
    O8       O        0.48450    0.20620    0.15080    1.000
    O9       O        0.82840    0.83250    0.14120    1.000
    O10      O        0.71310    0.08930    0.39000    1.000
    C10      C        0.71290    0.94980    0.15140    1.000
    O11      O        0.84010    0.09070    0.36210    1.000
    C11      C        0.59490    0.07030    0.15720    1.000
    O12      O        0.71640    0.83820    0.04580    1.000
    O13      O        0.46220    0.07710    0.06340    1.000
    C12      C        0.71610    0.05390    0.26460    1.000
    C13      C        0.63270    0.99420    0.11850    1.000
    H5       H        0.60410    0.97280    0.07010    1.000
    C14      C        0.75930    0.08120    0.34530    1.000
    O14      O        0.58640    0.33300    0.49700    1.000
    H6       H        0.61870    0.34420    0.53860    1.000
    C15      C        0.75510    0.86840    0.10960    1.000
    C16      C        0.75490    0.98200    0.22390    1.000
    H7       H        0.80990    0.95480    0.24540    1.000
    C17      C        0.50870    0.12060    0.12110    1.000
    C18      C        0.63570    0.09830    0.23100    1.000
    H8       H        0.60910    0.14690    0.25780    1.000
    Mn3      Mn       0.85685    0.70904    0.06223    1.000
    O15      O        0.01550    0.70620    0.34920    1.000
    O16      O        0.67160    0.33250    0.35880    1.000
    O17      O        0.78690    0.58930    0.11000    1.000
    C19      C        0.78710    0.44980    0.34860    1.000
    O18      O        0.65990    0.59070    0.13790    1.000
    C20      C        0.90510    0.57030    0.34280    1.000
    O19      O        0.78360    0.33820    0.45420    1.000
    O20      O        0.03780    0.57710    0.43660    1.000
    C21      C        0.78390    0.55390    0.23540    1.000
    C22      C        0.86730    0.49420    0.38150    1.000
    H9       H        0.89590    0.47280    0.42990    1.000
    C23      C        0.74070    0.58120    0.15470    1.000
    O21      O        0.91360    0.83300    0.00300    1.000
    H10      H        0.88130    0.84420    0.96140    1.000
    C24      C        0.74490    0.36840    0.39040    1.000
    C25      C        0.74510    0.48200    0.27610    1.000
    H11      H        0.69010    0.45480    0.25460    1.000
    C26      C        0.99130    0.62060    0.37890    1.000
    C27      C        0.86430    0.59830    0.26900    1.000
    H12      H        0.89090    0.64690    0.24220    1.000
    Mn4      Mn       0.35685    0.20904    0.06223    1.000
    O22      O        0.51550    0.20620    0.34920    1.000
    O23      O        0.17160    0.83250    0.35880    1.000
    O24      O        0.28690    0.08930    0.11000    1.000
    C28      C        0.28710    0.94980    0.34860    1.000
    O25      O        0.15990    0.09070    0.13790    1.000
    C29      C        0.40510    0.07030    0.34280    1.000
    O26      O        0.28360    0.83820    0.45420    1.000
    O27      O        0.53780    0.07710    0.43660    1.000
    C30      C        0.28390    0.05390    0.23540    1.000
    C31      C        0.36730    0.99420    0.38150    1.000
    H13      H        0.39590    0.97280    0.42990    1.000
    C32      C        0.24070    0.08120    0.15470    1.000
    O28      O        0.41360    0.33300    0.00300    1.000
    H14      H        0.38130    0.34420    0.96140    1.000
    C33      C        0.24490    0.86840    0.39040    1.000
    C34      C        0.24510    0.98200    0.27610    1.000
    H15      H        0.19010    0.95480    0.25460    1.000
    C35      C        0.49130    0.12060    0.37890    1.000
    C36      C        0.36430    0.09830    0.26900    1.000
    H16      H        0.39090    0.14690    0.24220    1.000
    Mn5      Mn       0.85685    0.29096    0.56223    1.000
    O29      O        0.01550    0.29380    0.84920    1.000
    O30      O        0.67160    0.66750    0.85880    1.000
    O31      O        0.78690    0.41070    0.61000    1.000
    C37      C        0.78710    0.55020    0.84860    1.000
    O32      O        0.65990    0.40930    0.63790    1.000
    C38      C        0.90510    0.42970    0.84280    1.000
    O33      O        0.78360    0.66180    0.95420    1.000
    O34      O        0.03780    0.42290    0.93660    1.000
    C39      C        0.78390    0.44610    0.73540    1.000
    C40      C        0.86730    0.50580    0.88150    1.000
    H17      H        0.89590    0.52720    0.92990    1.000
    C41      C        0.74070    0.41880    0.65470    1.000
    O35      O        0.91360    0.16700    0.50300    1.000
    H18      H        0.88130    0.15580    0.46140    1.000
    C42      C        0.74490    0.63160    0.89040    1.000
    C43      C        0.74510    0.51800    0.77610    1.000
    H19      H        0.69010    0.54520    0.75460    1.000
    C44      C        0.99130    0.37940    0.87890    1.000
    C45      C        0.86430    0.40170    0.76900    1.000
    H20      H        0.89090    0.35310    0.74220    1.000
    Mn6      Mn       0.35685    0.79096    0.56223    1.000
    O36      O        0.51550    0.79380    0.84920    1.000
    O37      O        0.17160    0.16750    0.85880    1.000
    O38      O        0.28690    0.91070    0.61000    1.000
    C46      C        0.28710    0.05020    0.84860    1.000
    O39      O        0.15990    0.90930    0.63790    1.000
    C47      C        0.40510    0.92970    0.84280    1.000
    O40      O        0.28360    0.16180    0.95420    1.000
    O41      O        0.53780    0.92290    0.93660    1.000
    C48      C        0.28390    0.94610    0.73540    1.000
    C49      C        0.36730    0.00580    0.88150    1.000
    H21      H        0.39590    0.02720    0.92990    1.000
    C50      C        0.24070    0.91880    0.65470    1.000
    O42      O        0.41360    0.66700    0.50300    1.000
    H22      H        0.38130    0.65580    0.46140    1.000
    C51      C        0.24490    0.13160    0.89040    1.000
    C52      C        0.24510    0.01800    0.77610    1.000
    H23      H        0.19010    0.04520    0.75460    1.000
    C53      C        0.49130    0.87940    0.87890    1.000
    C54      C        0.36430    0.90170    0.76900    1.000
    H24      H        0.39090    0.85310    0.74220    1.000
    Mn7      Mn       0.14315    0.29096    0.93777    1.000
    O43      O        0.98450    0.29380    0.65080    1.000
    O44      O        0.32840    0.66750    0.64120    1.000
    O45      O        0.21310    0.41070    0.89000    1.000
    C55      C        0.21290    0.55020    0.65140    1.000
    O46      O        0.34010    0.40930    0.86210    1.000
    C56      C        0.09490    0.42970    0.65720    1.000
    O47      O        0.21640    0.66180    0.54580    1.000
    O48      O        0.96220    0.42290    0.56340    1.000
    C57      C        0.21610    0.44610    0.76460    1.000
    C58      C        0.13270    0.50580    0.61850    1.000
    H25      H        0.10410    0.52720    0.57010    1.000
    C59      C        0.25930    0.41880    0.84530    1.000
    O49      O        0.08640    0.16700    0.99700    1.000
    H26      H        0.11870    0.15580    0.03860    1.000
    C60      C        0.25510    0.63160    0.60960    1.000
    C61      C        0.25490    0.51800    0.72390    1.000
    H27      H        0.30990    0.54520    0.74540    1.000
    C62      C        0.00870    0.37940    0.62110    1.000
    C63      C        0.13570    0.40170    0.73100    1.000
    H28      H        0.10910    0.35310    0.75780    1.000
    Mn8      Mn       0.64315    0.79096    0.93777    1.000
    O50      O        0.48450    0.79380    0.65080    1.000
    O51      O        0.82840    0.16750    0.64120    1.000
    O52      O        0.71310    0.91070    0.89000    1.000
    C64      C        0.71290    0.05020    0.65140    1.000
    O53      O        0.84010    0.90930    0.86210    1.000
    C65      C        0.59490    0.92970    0.65720    1.000
    O54      O        0.71640    0.16180    0.54580    1.000
    O55      O        0.46220    0.92290    0.56340    1.000
    C66      C        0.71610    0.94610    0.76460    1.000
    C67      C        0.63270    0.00580    0.61850    1.000
    H29      H        0.60410    0.02720    0.57010    1.000
    C68      C        0.75930    0.91880    0.84530    1.000
    O56      O        0.58640    0.66700    0.99700    1.000
    H30      H        0.61870    0.65580    0.03860    1.000
    C69      C        0.75510    0.13160    0.60960    1.000
    C70      C        0.75490    0.01800    0.72390    1.000
    H31      H        0.80990    0.04520    0.74540    1.000
    C71      C        0.50870    0.87940    0.62110    1.000
    C72      C        0.63570    0.90170    0.73100    1.000
    H32      H        0.60910    0.85310    0.75780    1.000
