# CIF file generated by openbabel 3.1.0, see https://openbabel.org
data_I
_chemical_name_common 'NEJRUR_clean'
_cell_length_a 10.8111
_cell_length_b 10.8475
_cell_length_c 14.021
_cell_angle_alpha 87.531
_cell_angle_beta 89.039
_cell_angle_gamma 85.997
_space_group_name_H-M_alt 'P 1'
_space_group_name_Hall 'P 1'
loop_
    _symmetry_equiv_pos_as_xyz
    x,y,z
loop_
    _atom_site_label
    _atom_site_type_symbol
    _atom_site_fract_x
    _atom_site_fract_y
    _atom_site_fract_z
    _atom_site_occupancy
    Cu1      Cu       0.77571    0.65211    0.38626    1.000
    Cu2      Cu       0.77908    0.66322    0.19738    1.000
    H1       H        0.76930    0.25480    0.43440    1.000
    H2       H        0.76450    0.04300    0.43290    1.000
    H3       H        0.78450    0.05870    0.14730    1.000
    H4       H        0.78870    0.27180    0.14790    1.000
    H5       H        0.38170    0.63980    0.43570    1.000
    H6       H        0.16810    0.63340    0.43540    1.000
    H7       H        0.17330    0.67530    0.14770    1.000
    H8       H        0.38610    0.68100    0.14870    1.000
    H9       H        0.59540    0.66260    0.55890    1.000
    H10      H        0.59090    0.66990    0.72220    1.000
    H11      H        0.96270    0.66050    0.71480    1.000
    H12      H        0.95590    0.65540    0.55300    1.000
    H13      H        0.94720    0.58890    0.02780    1.000
    H14      H        0.95160    0.58450    0.86450    1.000
    H15      H        0.61250    0.75990    0.86420    1.000
    H16      H        0.61710    0.75470    0.02740    1.000
    C1       C        0.78010    0.42420    0.29260    1.000
    C2       C        0.54340    0.66330    0.29249    1.000
    C3       C        0.77210    0.89110    0.28960    1.000
    C4       C        0.01110    0.65170    0.29101    1.000
    C5       C        0.77640    0.28590    0.29160    1.000
    C6       C        0.77120    0.21570    0.37580    1.000
    C7       C        0.76880    0.08930    0.37490    1.000
    C8       C        0.77240    0.02980    0.29010    1.000
    C9       C        0.78050    0.09860    0.20560    1.000
    C10      C        0.78280    0.22570    0.20590    1.000
    C11      C        0.40550    0.66140    0.29206    1.000
    C12      C        0.33930    0.64710    0.37750    1.000
    C13      C        0.21220    0.64350    0.37760    1.000
    C14      C        0.14890    0.65510    0.29089    1.000
    C15      C        0.21530    0.66850    0.20600    1.000
    C16      C        0.34210    0.67170    0.20660    1.000
    C17      C        0.67090    0.66220    0.59120    1.000
    C18      C        0.66740    0.66630    0.68920    1.000
    C19      C        0.77690    0.66520    0.73913    1.000
    C20      C        0.88560    0.66100    0.68470    1.000
    C21      C        0.88090    0.65780    0.58790    1.000
    C22      C        0.87700    0.62140    0.99400    1.000
    C23      C        0.88080    0.61850    0.89620    1.000
    C24      C        0.77770    0.66700    0.84450    1.000
    C25      C        0.68140    0.72100    0.89600    1.000
    C26      C        0.68540    0.71840    0.99390    1.000
    N1       N        0.77560    0.65780    0.54001    1.000
    N2       N        0.78000    0.66740    0.04380    1.000
    O1       O        0.78220    0.47137    0.37188    1.000
    O2       O        0.78050    0.48162    0.21319    1.000
    O3       O        0.59585    0.65590    0.37240    1.000
    O4       O        0.59867    0.67110    0.21306    1.000
    O5       O        0.76810    0.83414    0.36859    1.000
    O6       O        0.77530    0.84310    0.21015    1.000
    O7       O        0.95592    0.64880    0.37061    1.000
    O8       O        0.95955    0.65300    0.21133    1.000
    Cu3      Cu       0.22429    0.34789    0.61374    1.000
    Cu4      Cu       0.22092    0.33678    0.80262    1.000
    H17      H        0.23070    0.74520    0.56560    1.000
    H18      H        0.23550    0.95700    0.56710    1.000
    H19      H        0.21550    0.94130    0.85270    1.000
    H20      H        0.21130    0.72820    0.85210    1.000
    H21      H        0.61830    0.36020    0.56430    1.000
    H22      H        0.83190    0.36660    0.56460    1.000
    H23      H        0.82670    0.32470    0.85230    1.000
    H24      H        0.61390    0.31900    0.85130    1.000
    H25      H        0.40460    0.33740    0.44110    1.000
    H26      H        0.40910    0.33010    0.27780    1.000
    H27      H        0.03730    0.33950    0.28520    1.000
    H28      H        0.04410    0.34460    0.44700    1.000
    H29      H        0.05280    0.41110    0.97220    1.000
    H30      H        0.04840    0.41550    0.13550    1.000
    H31      H        0.38750    0.24010    0.13580    1.000
    H32      H        0.38290    0.24530    0.97260    1.000
    C27      C        0.21990    0.57580    0.70740    1.000
    C28      C        0.45660    0.33670    0.70751    1.000
    C29      C        0.22790    0.10890    0.71040    1.000
    C30      C        0.98890    0.34830    0.70899    1.000
    C31      C        0.22360    0.71410    0.70840    1.000
    C32      C        0.22880    0.78430    0.62420    1.000
    C33      C        0.23120    0.91070    0.62510    1.000
    C34      C        0.22760    0.97020    0.70990    1.000
    C35      C        0.21950    0.90140    0.79440    1.000
    C36      C        0.21720    0.77430    0.79410    1.000
    C37      C        0.59450    0.33860    0.70794    1.000
    C38      C        0.66070    0.35290    0.62250    1.000
    C39      C        0.78780    0.35650    0.62240    1.000
    C40      C        0.85110    0.34490    0.70911    1.000
    C41      C        0.78470    0.33150    0.79400    1.000
    C42      C        0.65790    0.32830    0.79340    1.000
    C43      C        0.32910    0.33780    0.40880    1.000
    C44      C        0.33260    0.33370    0.31080    1.000
    C45      C        0.22310    0.33480    0.26087    1.000
    C46      C        0.11440    0.33900    0.31530    1.000
    C47      C        0.11910    0.34220    0.41210    1.000
    C48      C        0.12300    0.37860    0.00600    1.000
    C49      C        0.11920    0.38150    0.10380    1.000
    C50      C        0.22230    0.33300    0.15550    1.000
    C51      C        0.31860    0.27900    0.10400    1.000
    C52      C        0.31460    0.28160    0.00610    1.000
    N3       N        0.22440    0.34220    0.45999    1.000
    N4       N        0.22000    0.33260    0.95620    1.000
    O9       O        0.21780    0.52863    0.62812    1.000
    O10      O        0.21950    0.51838    0.78681    1.000
    O11      O        0.40415    0.34410    0.62760    1.000
    O12      O        0.40133    0.32890    0.78694    1.000
    O13      O        0.23190    0.16586    0.63141    1.000
    O14      O        0.22470    0.15690    0.78985    1.000
    O15      O        0.04408    0.35120    0.62939    1.000
    O16      O        0.04045    0.34700    0.78867    1.000
