# CIF file generated by openbabel 3.1.0, see https://openbabel.org
data_I
_chemical_name_common 'image0'
_cell_length_a 4.9392
_cell_length_b 12.1867
_cell_length_c 10.783
_cell_angle_alpha 90
_cell_angle_beta 94.7665
_cell_angle_gamma 90
_space_group_name_H-M_alt 'P 1'
_space_group_name_Hall 'P 1'
loop_
    _symmetry_equiv_pos_as_xyz
    x,y,z
loop_
    _atom_site_label
    _atom_site_type_symbol
    _atom_site_fract_x
    _atom_site_fract_y
    _atom_site_fract_z
    _atom_site_occupancy
    P1       P        0.53590    0.51400    0.18130    1.000
    F1       F        0.06630    0.35330    0.98370    1.000
    O1       O        0.70190    0.45880    0.08370    1.000
    O2       O        0.60730    0.63680    0.18890    1.000
    O3       O        0.22600    0.50710    0.14380    1.000
    C1       C        0.47040    0.52210    0.43220    1.000
    C2       C        0.61680    0.46340    0.33340    1.000
    P2       P        0.46410    0.01400    0.81870    1.000
    F2       F        0.93370    0.85330    0.01630    1.000
    O4       O        0.29810    0.95880    0.91630    1.000
    O5       O        0.39270    0.13680    0.81110    1.000
    O6       O        0.77400    0.00710    0.85620    1.000
    C3       C        0.52960    0.02210    0.56780    1.000
    C4       C        0.38320    0.96340    0.66660    1.000
    P3       P        0.46410    0.48600    0.81870    1.000
    F3       F        0.93370    0.64670    0.01630    1.000
    O7       O        0.29810    0.54120    0.91630    1.000
    O8       O        0.39270    0.36320    0.81110    1.000
    O9       O        0.77400    0.49290    0.85620    1.000
    C5       C        0.52960    0.47790    0.56780    1.000
    C6       C        0.38320    0.53660    0.66660    1.000
    P4       P        0.53590    0.98600    0.18130    1.000
    F4       F        0.06630    0.14670    0.98370    1.000
    O10      O        0.70190    0.04120    0.08370    1.000
    O11      O        0.60730    0.86320    0.18890    1.000
    O12      O        0.22600    0.99290    0.14380    1.000
    C7       C        0.47040    0.97790    0.43220    1.000
    C8       C        0.61680    0.03660    0.33340    1.000
    Al1      Al       0.00000    0.50000    0.00000    1.000
    Al2      Al       0.00000    0.00000    0.00000    1.000
    Al3      Al       0.24350    0.25000    0.89860    1.000
    Al4      Al       0.75650    0.75000    0.10140    1.000
