# CIF file generated by openbabel 3.1.0, see https://openbabel.org
data_I
_chemical_name_common 'image0'
_cell_length_a 17.758
_cell_length_b 8.281
_cell_length_c 13.993
_cell_angle_alpha 90
_cell_angle_beta 107.21
_cell_angle_gamma 90
_space_group_name_H-M_alt 'P 1'
_space_group_name_Hall 'P 1'
loop_
    _symmetry_equiv_pos_as_xyz
    x,y,z
loop_
    _atom_site_label
    _atom_site_type_symbol
    _atom_site_fract_x
    _atom_site_fract_y
    _atom_site_fract_z
    _atom_site_occupancy
    Sr1      Sr       0.06664    0.90497    0.15704    1.000
    O1       O        0.18251    0.71460    0.23633    1.000
    O2       O        0.29609    0.57790    0.27620    1.000
    O3       O        0.41752    0.44490    0.15827    1.000
    O4       O        0.41621    0.53700    0.00932    1.000
    N1       N        0.25412    0.42000    0.09458    1.000
    H1       H        0.29000    0.37340    0.14770    1.000
    C1       C        0.19216    0.49730    0.13230    1.000
    H2       H        0.16070    0.41370    0.15060    1.000
    H3       H        0.15750    0.56120    0.07920    1.000
    C2       C        0.22769    0.60550    0.22290    1.000
    C3       C        0.29662    0.54250    0.05130    1.000
    H4       H        0.29070    0.64800    0.07840    1.000
    H5       H        0.27280    0.54690    0.97940    1.000
    C4       C        0.38372    0.50480    0.07370    1.000
    C5       C        0.21902    0.28830    0.02040    1.000
    H6       H        0.17720    0.33310    0.96550    1.000
    H7       H        0.19610    0.20610    0.05270    1.000
    H8       H        0.96160    0.61260    0.24110    1.000
    Sr2      Sr       0.56664    0.40497    0.15704    1.000
    O5       O        0.68251    0.21460    0.23633    1.000
    O6       O        0.79609    0.07790    0.27620    1.000
    O7       O        0.91752    0.94490    0.15827    1.000
    O8       O        0.91621    0.03700    0.00932    1.000
    N2       N        0.75412    0.92000    0.09458    1.000
    H9       H        0.79000    0.87340    0.14770    1.000
    C6       C        0.69216    0.99730    0.13230    1.000
    H10      H        0.66070    0.91370    0.15060    1.000
    H11      H        0.65750    0.06120    0.07920    1.000
    C7       C        0.72769    0.10550    0.22290    1.000
    C8       C        0.79662    0.04250    0.05130    1.000
    H12      H        0.79070    0.14800    0.07840    1.000
    H13      H        0.77280    0.04690    0.97940    1.000
    C9       C        0.88372    0.00480    0.07370    1.000
    C10      C        0.71902    0.78830    0.02040    1.000
    H14      H        0.67720    0.83310    0.96550    1.000
    H15      H        0.69610    0.70610    0.05270    1.000
    H16      H        0.46160    0.11260    0.24110    1.000
    Sr3      Sr       0.93336    0.90497    0.34296    1.000
    O9       O        0.81749    0.71460    0.26367    1.000
    O10      O        0.70391    0.57790    0.22380    1.000
    O11      O        0.58248    0.44490    0.34173    1.000
    O12      O        0.58379    0.53700    0.49068    1.000
    N3       N        0.74588    0.42000    0.40542    1.000
    H17      H        0.71000    0.37340    0.35230    1.000
    C11      C        0.80784    0.49730    0.36770    1.000
    H18      H        0.83930    0.41370    0.34940    1.000
    H19      H        0.84250    0.56120    0.42080    1.000
    C12      C        0.77231    0.60550    0.27710    1.000
    C13      C        0.70338    0.54250    0.44870    1.000
    H20      H        0.70930    0.64800    0.42160    1.000
    H21      H        0.72720    0.54690    0.52060    1.000
    C14      C        0.61628    0.50480    0.42630    1.000
    C15      C        0.78098    0.28830    0.47960    1.000
    H22      H        0.82280    0.33310    0.53450    1.000
    H23      H        0.80390    0.20610    0.44730    1.000
    H24      H        0.03840    0.61260    0.25890    1.000
    Sr4      Sr       0.43336    0.40497    0.34296    1.000
    O13      O        0.31749    0.21460    0.26367    1.000
    O14      O        0.20391    0.07790    0.22380    1.000
    O15      O        0.08248    0.94490    0.34173    1.000
    O16      O        0.08379    0.03700    0.49068    1.000
    N4       N        0.24588    0.92000    0.40542    1.000
    H25      H        0.21000    0.87340    0.35230    1.000
    C16      C        0.30784    0.99730    0.36770    1.000
    H26      H        0.33930    0.91370    0.34940    1.000
    H27      H        0.34250    0.06120    0.42080    1.000
    C17      C        0.27231    0.10550    0.27710    1.000
    C18      C        0.20338    0.04250    0.44870    1.000
    H28      H        0.20930    0.14800    0.42160    1.000
    H29      H        0.22720    0.04690    0.52060    1.000
    C19      C        0.11628    0.00480    0.42630    1.000
    C20      C        0.28098    0.78830    0.47960    1.000
    H30      H        0.32280    0.83310    0.53450    1.000
    H31      H        0.30390    0.70610    0.44730    1.000
    H32      H        0.53840    0.11260    0.25890    1.000
    Sr5      Sr       0.93336    0.09503    0.84296    1.000
    O17      O        0.81749    0.28540    0.76367    1.000
    O18      O        0.70391    0.42210    0.72380    1.000
    O19      O        0.58248    0.55510    0.84173    1.000
    O20      O        0.58379    0.46300    0.99068    1.000
    N5       N        0.74588    0.58000    0.90542    1.000
    H33      H        0.71000    0.62660    0.85230    1.000
    C21      C        0.80784    0.50270    0.86770    1.000
    H34      H        0.83930    0.58630    0.84940    1.000
    H35      H        0.84250    0.43880    0.92080    1.000
    C22      C        0.77231    0.39450    0.77710    1.000
    C23      C        0.70338    0.45750    0.94870    1.000
    H36      H        0.70930    0.35200    0.92160    1.000
    H37      H        0.72720    0.45310    0.02060    1.000
    C24      C        0.61628    0.49520    0.92630    1.000
    C25      C        0.78098    0.71170    0.97960    1.000
    H38      H        0.82280    0.66690    0.03450    1.000
    H39      H        0.80390    0.79390    0.94730    1.000
    H40      H        0.03840    0.38740    0.75890    1.000
    Sr6      Sr       0.43336    0.59503    0.84296    1.000
    O21      O        0.31749    0.78540    0.76367    1.000
    O22      O        0.20391    0.92210    0.72380    1.000
    O23      O        0.08248    0.05510    0.84173    1.000
    O24      O        0.08379    0.96300    0.99068    1.000
    N6       N        0.24588    0.08000    0.90542    1.000
    H41      H        0.21000    0.12660    0.85230    1.000
    C26      C        0.30784    0.00270    0.86770    1.000
    H42      H        0.33930    0.08630    0.84940    1.000
    H43      H        0.34250    0.93880    0.92080    1.000
    C27      C        0.27231    0.89450    0.77710    1.000
    C28      C        0.20338    0.95750    0.94870    1.000
    H44      H        0.20930    0.85200    0.92160    1.000
    H45      H        0.22720    0.95310    0.02060    1.000
    C29      C        0.11628    0.99520    0.92630    1.000
    C30      C        0.28098    0.21170    0.97960    1.000
    H46      H        0.32280    0.16690    0.03450    1.000
    H47      H        0.30390    0.29390    0.94730    1.000
    H48      H        0.53840    0.88740    0.75890    1.000
    Sr7      Sr       0.06664    0.09503    0.65704    1.000
    O25      O        0.18251    0.28540    0.73633    1.000
    O26      O        0.29609    0.42210    0.77620    1.000
    O27      O        0.41752    0.55510    0.65827    1.000
    O28      O        0.41621    0.46300    0.50932    1.000
    N7       N        0.25412    0.58000    0.59458    1.000
    H49      H        0.29000    0.62660    0.64770    1.000
    C31      C        0.19216    0.50270    0.63230    1.000
    H50      H        0.16070    0.58630    0.65060    1.000
    H51      H        0.15750    0.43880    0.57920    1.000
    C32      C        0.22769    0.39450    0.72290    1.000
    C33      C        0.29662    0.45750    0.55130    1.000
    H52      H        0.29070    0.35200    0.57840    1.000
    H53      H        0.27280    0.45310    0.47940    1.000
    C34      C        0.38372    0.49520    0.57370    1.000
    C35      C        0.21902    0.71170    0.52040    1.000
    H54      H        0.17720    0.66690    0.46550    1.000
    H55      H        0.19610    0.79390    0.55270    1.000
    H56      H        0.96160    0.38740    0.74110    1.000
    Sr8      Sr       0.56664    0.59503    0.65704    1.000
    O29      O        0.68251    0.78540    0.73633    1.000
    O30      O        0.79609    0.92210    0.77620    1.000
    O31      O        0.91752    0.05510    0.65827    1.000
    O32      O        0.91621    0.96300    0.50932    1.000
    N8       N        0.75412    0.08000    0.59458    1.000
    H57      H        0.79000    0.12660    0.64770    1.000
    C36      C        0.69216    0.00270    0.63230    1.000
    H58      H        0.66070    0.08630    0.65060    1.000
    H59      H        0.65750    0.93880    0.57920    1.000
    C37      C        0.72769    0.89450    0.72290    1.000
    C38      C        0.79662    0.95750    0.55130    1.000
    H60      H        0.79070    0.85200    0.57840    1.000
    H61      H        0.77280    0.95310    0.47940    1.000
    C39      C        0.88372    0.99520    0.57370    1.000
    C40      C        0.71902    0.21170    0.52040    1.000
    H62      H        0.67720    0.16690    0.46550    1.000
    H63      H        0.69610    0.29390    0.55270    1.000
    H64      H        0.46160    0.88740    0.74110    1.000
    O33      O        0.00000    0.67790    0.25000    1.000
    O34      O        0.50000    0.17790    0.25000    1.000
    O35      O        0.00000    0.32210    0.75000    1.000
    O36      O        0.50000    0.82210    0.75000    1.000
