# CIF file generated by openbabel 3.1.0, see https://openbabel.org
data_I
_chemical_name_common 'image0'
_cell_length_a 44.006
_cell_length_b 44.006
_cell_length_c 28.267
_cell_angle_alpha 90
_cell_angle_beta 90
_cell_angle_gamma 120
_space_group_name_H-M_alt 'P 1'
_space_group_name_Hall 'P 1'
loop_
    _symmetry_equiv_pos_as_xyz
    x,y,z
loop_
    _atom_site_label
    _atom_site_type_symbol
    _atom_site_fract_x
    _atom_site_fract_y
    _atom_site_fract_z
    _atom_site_occupancy
    Zn1      Zn       0.49284    0.64556    0.80690    1.000
    I1       I        0.45405    0.67197    0.80786    1.000
    N1       N        0.54373    0.68255    0.82110    1.000
    C1       C        0.55882    0.71303    0.79603    1.000
    H1       H        0.54530    0.71580    0.77200    1.000
    C2       C        0.59192    0.73954    0.80345    1.000
    H2       H        0.60170    0.76020    0.78460    1.000
    C3       C        0.61129    0.73572    0.83956    1.000
    C4       C        0.59688    0.70488    0.86444    1.000
    H3       H        0.60980    0.70160    0.88880    1.000
    C5       C        0.56288    0.67842    0.85342    1.000
    H4       H        0.55330    0.65670    0.86980    1.000
    N2       N        0.79538    0.94234    0.69068    1.000
    C6       C        0.81080    0.94512    0.73293    1.000
    H5       H        0.83360    0.96460    0.73820    1.000
    C7       C        0.79530    0.92122    0.76854    1.000
    H6       H        0.80690    0.92430    0.79800    1.000
    C8       C        0.76224    0.89233    0.76104    1.000
    C9       C        0.74532    0.89022    0.71832    1.000
    H7       H        0.72210    0.87160    0.71280    1.000
    C10      C        0.76252    0.91507    0.68475    1.000
    H8       H        0.75090    0.91320    0.65570    1.000
    N3       N        0.79362    0.83520    0.07889    1.000
    C11      C        0.76410    0.80690    0.06830    1.000
    H9       H        0.75410    0.78850    0.09090    1.000
    C12      C        0.74650    0.80237    0.02634    1.000
    H10      H        0.72490    0.78130    0.02100    1.000
    C13      C        0.75936    0.82709    0.99316    1.000
    C14      C        0.78980    0.85780    0.00370    1.000
    H11      H        0.79950    0.87670    0.98190    1.000
    C15      C        0.80630    0.86050    0.04750    1.000
    H12      H        0.82740    0.88150    0.05460    1.000
    C16      C        0.64740    0.76556    0.84945    1.000
    N4       N        0.66181    0.78894    0.81357    1.000
    C17      C        0.69456    0.81558    0.82149    1.000
    N5       N        0.71119    0.83996    0.78736    1.000
    C18      C        0.74365    0.86480    0.79853    1.000
    N6       N        0.76233    0.86996    0.83834    1.000
    C19      C        0.74517    0.84583    0.87248    1.000
    N7       N        0.76101    0.84842    0.91496    1.000
    C20      C        0.74208    0.82359    0.94635    1.000
    N8       N        0.70915    0.79542    0.94259    1.000
    C21      C        0.69314    0.79261    0.89979    1.000
    N9       N        0.66088    0.76572    0.89212    1.000
    C22      C        0.71104    0.81812    0.86509    1.000
    Zn2      Zn       0.15950    0.97890    0.14023    1.000
    I2       I        0.12071    0.00531    0.14119    1.000
    N10      N        0.21040    0.01588    0.15443    1.000
    C23      C        0.22549    0.04636    0.12936    1.000
    H13      H        0.21197    0.04913    0.10533    1.000
    C24      C        0.25859    0.07287    0.13678    1.000
    H14      H        0.26837    0.09353    0.11793    1.000
    C25      C        0.27796    0.06905    0.17289    1.000
    C26      C        0.26355    0.03821    0.19777    1.000
    H15      H        0.27647    0.03493    0.22213    1.000
    C27      C        0.22955    0.01175    0.18675    1.000
    H16      H        0.21997    0.99003    0.20313    1.000
    N11      N        0.46205    0.27567    0.02401    1.000
    C28      C        0.47747    0.27845    0.06626    1.000
    H17      H        0.50027    0.29793    0.07153    1.000
    C29      C        0.46197    0.25455    0.10187    1.000
    H18      H        0.47357    0.25763    0.13133    1.000
    C30      C        0.42891    0.22566    0.09437    1.000
    C31      C        0.41199    0.22355    0.05165    1.000
    H19      H        0.38877    0.20493    0.04613    1.000
    C32      C        0.42919    0.24840    0.01808    1.000
    H20      H        0.41757    0.24653    0.98903    1.000
    N12      N        0.46029    0.16853    0.41222    1.000
    C33      C        0.43077    0.14023    0.40163    1.000
    H21      H        0.42077    0.12183    0.42423    1.000
    C34      C        0.41317    0.13570    0.35967    1.000
    H22      H        0.39157    0.11463    0.35433    1.000
    C35      C        0.42603    0.16042    0.32649    1.000
    C36      C        0.45647    0.19113    0.33703    1.000
    H23      H        0.46617    0.21003    0.31523    1.000
    C37      C        0.47297    0.19383    0.38083    1.000
    H24      H        0.49407    0.21483    0.38793    1.000
    C38      C        0.31407    0.09889    0.18278    1.000
    N13      N        0.32848    0.12227    0.14690    1.000
    C39      C        0.36123    0.14891    0.15482    1.000
    N14      N        0.37786    0.17329    0.12069    1.000
    C40      C        0.41032    0.19813    0.13186    1.000
    N15      N        0.42900    0.20329    0.17167    1.000
    C41      C        0.41184    0.17916    0.20581    1.000
    N16      N        0.42768    0.18175    0.24829    1.000
    C42      C        0.40875    0.15692    0.27968    1.000
    N17      N        0.37582    0.12875    0.27592    1.000
    C43      C        0.35981    0.12594    0.23312    1.000
    N18      N        0.32755    0.09905    0.22545    1.000
    C44      C        0.37771    0.15145    0.19842    1.000
    Zn3      Zn       0.82617    0.31223    0.47357    1.000
    I3       I        0.78738    0.33864    0.47453    1.000
    N19      N        0.87706    0.34922    0.48777    1.000
    C45      C        0.89215    0.37970    0.46270    1.000
    H25      H        0.87863    0.38247    0.43867    1.000
    C46      C        0.92525    0.40621    0.47012    1.000
    H26      H        0.93503    0.42687    0.45127    1.000
    C47      C        0.94462    0.40239    0.50623    1.000
    C48      C        0.93021    0.37155    0.53111    1.000
    H27      H        0.94313    0.36827    0.55547    1.000
    C49      C        0.89621    0.34509    0.52009    1.000
    H28      H        0.88663    0.32337    0.53647    1.000
    N20      N        0.12871    0.60901    0.35735    1.000
    C50      C        0.14413    0.61179    0.39960    1.000
    H29      H        0.16693    0.63127    0.40487    1.000
    C51      C        0.12863    0.58789    0.43521    1.000
    H30      H        0.14023    0.59097    0.46467    1.000
    C52      C        0.09557    0.55900    0.42771    1.000
    C53      C        0.07865    0.55689    0.38499    1.000
    H31      H        0.05543    0.53827    0.37947    1.000
    C54      C        0.09585    0.58174    0.35142    1.000
    H32      H        0.08423    0.57987    0.32237    1.000
    N21      N        0.12695    0.50187    0.74556    1.000
    C55      C        0.09743    0.47357    0.73497    1.000
    H33      H        0.08743    0.45517    0.75757    1.000
    C56      C        0.07983    0.46904    0.69301    1.000
    H34      H        0.05823    0.44797    0.68767    1.000
    C57      C        0.09269    0.49376    0.65983    1.000
    C58      C        0.12313    0.52447    0.67037    1.000
    H35      H        0.13283    0.54337    0.64857    1.000
    C59      C        0.13963    0.52717    0.71417    1.000
    H36      H        0.16073    0.54817    0.72127    1.000
    C60      C        0.98073    0.43223    0.51612    1.000
    N22      N        0.99514    0.45561    0.48024    1.000
    C61      C        0.02789    0.48225    0.48816    1.000
    N23      N        0.04452    0.50663    0.45403    1.000
    C62      C        0.07698    0.53147    0.46520    1.000
    N24      N        0.09566    0.53663    0.50501    1.000
    C63      C        0.07850    0.51250    0.53915    1.000
    N25      N        0.09434    0.51509    0.58163    1.000
    C64      C        0.07541    0.49026    0.61302    1.000
    N26      N        0.04248    0.46209    0.60926    1.000
    C65      C        0.02647    0.45928    0.56646    1.000
    N27      N        0.99421    0.43239    0.55879    1.000
    C66      C        0.04437    0.48479    0.53176    1.000
    Zn4      Zn       0.35444    0.84727    0.80690    1.000
    I4       I        0.32803    0.78207    0.80786    1.000
    N28      N        0.31745    0.86118    0.82110    1.000
    C67      C        0.28697    0.84579    0.79603    1.000
    H37      H        0.28420    0.82950    0.77200    1.000
    C68      C        0.26046    0.85238    0.80345    1.000
    H38      H        0.23980    0.84150    0.78460    1.000
    C69      C        0.26428    0.87557    0.83956    1.000
    C70      C        0.29512    0.89200    0.86444    1.000
    H39      H        0.29840    0.90820    0.88880    1.000
    C71      C        0.32158    0.88446    0.85342    1.000
    H40      H        0.34330    0.89660    0.86980    1.000
    N29      N        0.05766    0.85304    0.69068    1.000
    C72      C        0.05488    0.86568    0.73293    1.000
    H41      H        0.03540    0.86900    0.73820    1.000
    C73      C        0.07878    0.87408    0.76854    1.000
    H42      H        0.07570    0.88260    0.79800    1.000
    C74      C        0.10767    0.86991    0.76104    1.000
    C75      C        0.10978    0.85510    0.71832    1.000
    H43      H        0.12840    0.85050    0.71280    1.000
    C76      C        0.08493    0.84745    0.68475    1.000
    H44      H        0.08680    0.83770    0.65570    1.000
    N30      N        0.16480    0.95842    0.07889    1.000
    C77      C        0.19310    0.95720    0.06830    1.000
    H45      H        0.21150    0.96560    0.09090    1.000
    C78      C        0.19763    0.94413    0.02634    1.000
    H46      H        0.21870    0.94360    0.02100    1.000
    C79      C        0.17291    0.93227    0.99316    1.000
    C80      C        0.14220    0.93200    0.00370    1.000
    H47      H        0.12330    0.92280    0.98190    1.000
    C81      C        0.13950    0.94580    0.04750    1.000
    H48      H        0.11850    0.94590    0.05460    1.000
    C82      C        0.23444    0.88184    0.84945    1.000
    N31      N        0.21106    0.87287    0.81357    1.000
    C83      C        0.18442    0.87898    0.82149    1.000
    N32      N        0.16004    0.87123    0.78736    1.000
    C84      C        0.13520    0.87885    0.79853    1.000
    N33      N        0.13004    0.89237    0.83834    1.000
    C85      C        0.15417    0.89934    0.87248    1.000
    N34      N        0.15158    0.91259    0.91496    1.000
    C86      C        0.17641    0.91849    0.94635    1.000
    N35      N        0.20458    0.91373    0.94259    1.000
    C87      C        0.20739    0.90053    0.89979    1.000
    N36      N        0.23428    0.89516    0.89212    1.000
    C88      C        0.18188    0.89292    0.86509    1.000
    Zn5      Zn       0.02110    0.18061    0.14023    1.000
    I5       I        0.99469    0.11541    0.14119    1.000
    N37      N        0.98412    0.19451    0.15443    1.000
    C89      C        0.95364    0.17912    0.12936    1.000
    H49      H        0.95087    0.16283    0.10533    1.000
    C90      C        0.92713    0.18571    0.13678    1.000
    H50      H        0.90647    0.17483    0.11793    1.000
    C91      C        0.93095    0.20890    0.17289    1.000
    C92      C        0.96179    0.22533    0.19777    1.000
    H51      H        0.96507    0.24153    0.22213    1.000
    C93      C        0.98825    0.21779    0.18675    1.000
    H52      H        0.00997    0.22993    0.20313    1.000
    N38      N        0.72433    0.18637    0.02401    1.000
    C94      C        0.72155    0.19901    0.06626    1.000
    H53      H        0.70207    0.20233    0.07153    1.000
    C95      C        0.74545    0.20741    0.10187    1.000
    H54      H        0.74237    0.21593    0.13133    1.000
    C96      C        0.77434    0.20324    0.09437    1.000
    C97      C        0.77645    0.18843    0.05165    1.000
    H55      H        0.79507    0.18383    0.04613    1.000
    C98      C        0.75160    0.18078    0.01808    1.000
    H56      H        0.75347    0.17103    0.98903    1.000
    N39      N        0.83147    0.29175    0.41222    1.000
    C99      C        0.85977    0.29053    0.40163    1.000
    H57      H        0.87817    0.29893    0.42423    1.000
    C100     C        0.86430    0.27746    0.35967    1.000
    H58      H        0.88537    0.27693    0.35433    1.000
    C101     C        0.83958    0.26560    0.32649    1.000
    C102     C        0.80887    0.26533    0.33703    1.000
    H59      H        0.78997    0.25613    0.31523    1.000
    C103     C        0.80617    0.27913    0.38083    1.000
    H60      H        0.78517    0.27923    0.38793    1.000
    C104     C        0.90111    0.21517    0.18278    1.000
    N40      N        0.87773    0.20620    0.14690    1.000
    C105     C        0.85109    0.21231    0.15482    1.000
    N41      N        0.82671    0.20456    0.12069    1.000
    C106     C        0.80187    0.21218    0.13186    1.000
    N42      N        0.79671    0.22570    0.17167    1.000
    C107     C        0.82084    0.23267    0.20581    1.000
    N43      N        0.81825    0.24592    0.24829    1.000
    C108     C        0.84308    0.25182    0.27968    1.000
    N44      N        0.87125    0.24706    0.27592    1.000
    C109     C        0.87406    0.23386    0.23312    1.000
    N45      N        0.90095    0.22849    0.22545    1.000
    C110     C        0.84855    0.22625    0.19842    1.000
    Zn6      Zn       0.68777    0.51394    0.47357    1.000
    I6       I        0.66136    0.44874    0.47453    1.000
    N46      N        0.65078    0.52785    0.48777    1.000
    C111     C        0.62030    0.51246    0.46270    1.000
    H61      H        0.61753    0.49617    0.43867    1.000
    C112     C        0.59379    0.51905    0.47012    1.000
    H62      H        0.57313    0.50817    0.45127    1.000
    C113     C        0.59761    0.54224    0.50623    1.000
    C114     C        0.62845    0.55867    0.53111    1.000
    H63      H        0.63173    0.57487    0.55547    1.000
    C115     C        0.65491    0.55113    0.52009    1.000
    H64      H        0.67663    0.56327    0.53647    1.000
    N47      N        0.39099    0.51971    0.35735    1.000
    C116     C        0.38821    0.53235    0.39960    1.000
    H65      H        0.36873    0.53567    0.40487    1.000
    C117     C        0.41211    0.54075    0.43521    1.000
    H66      H        0.40903    0.54927    0.46467    1.000
    C118     C        0.44100    0.53658    0.42771    1.000
    C119     C        0.44311    0.52177    0.38499    1.000
    H67      H        0.46173    0.51717    0.37947    1.000
    C120     C        0.41826    0.51412    0.35142    1.000
    H68      H        0.42013    0.50437    0.32237    1.000
    N48      N        0.49813    0.62509    0.74556    1.000
    C121     C        0.52643    0.62387    0.73497    1.000
    H69      H        0.54483    0.63227    0.75757    1.000
    C122     C        0.53096    0.61080    0.69301    1.000
    H70      H        0.55203    0.61027    0.68767    1.000
    C123     C        0.50624    0.59894    0.65983    1.000
    C124     C        0.47553    0.59867    0.67037    1.000
    H71      H        0.45663    0.58947    0.64857    1.000
    C125     C        0.47283    0.61247    0.71417    1.000
    H72      H        0.45183    0.61257    0.72127    1.000
    C126     C        0.56777    0.54851    0.51612    1.000
    N49      N        0.54439    0.53954    0.48024    1.000
    C127     C        0.51775    0.54565    0.48816    1.000
    N50      N        0.49337    0.53790    0.45403    1.000
    C128     C        0.46853    0.54552    0.46520    1.000
    N51      N        0.46337    0.55904    0.50501    1.000
    C129     C        0.48750    0.56601    0.53915    1.000
    N52      N        0.48491    0.57926    0.58163    1.000
    C130     C        0.50974    0.58516    0.61302    1.000
    N53      N        0.53791    0.58040    0.60926    1.000
    C131     C        0.54072    0.56720    0.56646    1.000
    N54      N        0.56761    0.56183    0.55879    1.000
    C132     C        0.51521    0.55959    0.53176    1.000
    Zn7      Zn       0.15273    0.50716    0.80690    1.000
    I7       I        0.21793    0.54595    0.80786    1.000
    N55      N        0.13882    0.45627    0.82110    1.000
    C133     C        0.15421    0.44118    0.79603    1.000
    H73      H        0.17050    0.45470    0.77200    1.000
    C134     C        0.14762    0.40808    0.80345    1.000
    H74      H        0.15850    0.39830    0.78460    1.000
    C135     C        0.12443    0.38871    0.83956    1.000
    C136     C        0.10800    0.40312    0.86444    1.000
    H75      H        0.09180    0.39020    0.88880    1.000
    C137     C        0.11554    0.43712    0.85342    1.000
    H76      H        0.10340    0.44670    0.86980    1.000
    N56      N        0.14696    0.20462    0.69068    1.000
    C138     C        0.13432    0.18920    0.73293    1.000
    H77      H        0.13100    0.16640    0.73820    1.000
    C139     C        0.12592    0.20470    0.76854    1.000
    H78      H        0.11740    0.19310    0.79800    1.000
    C140     C        0.13009    0.23776    0.76104    1.000
    C141     C        0.14490    0.25468    0.71832    1.000
    H79      H        0.14950    0.27790    0.71280    1.000
    C142     C        0.15255    0.23748    0.68475    1.000
    H80      H        0.16230    0.24910    0.65570    1.000
    N57      N        0.04158    0.20638    0.07889    1.000
    C143     C        0.04280    0.23590    0.06830    1.000
    H81      H        0.03440    0.24590    0.09090    1.000
    C144     C        0.05587    0.25350    0.02634    1.000
    H82      H        0.05640    0.27510    0.02100    1.000
    C145     C        0.06773    0.24064    0.99316    1.000
    C146     C        0.06800    0.21020    0.00370    1.000
    H83      H        0.07720    0.20050    0.98190    1.000
    C147     C        0.05420    0.19370    0.04750    1.000
    H84      H        0.05410    0.17260    0.05460    1.000
    C148     C        0.11816    0.35260    0.84945    1.000
    N58      N        0.12713    0.33819    0.81357    1.000
    C149     C        0.12102    0.30544    0.82149    1.000
    N59      N        0.12877    0.28881    0.78736    1.000
    C150     C        0.12115    0.25635    0.79853    1.000
    N60      N        0.10763    0.23767    0.83834    1.000
    C151     C        0.10066    0.25483    0.87248    1.000
    N61      N        0.08741    0.23899    0.91496    1.000
    C152     C        0.08151    0.25792    0.94635    1.000
    N62      N        0.08627    0.29085    0.94259    1.000
    C153     C        0.09947    0.30686    0.89979    1.000
    N63      N        0.10484    0.33912    0.89212    1.000
    C154     C        0.10708    0.28896    0.86509    1.000
    Zn8      Zn       0.81939    0.84050    0.14023    1.000
    I8       I        0.88459    0.87929    0.14119    1.000
    N64      N        0.80549    0.78960    0.15443    1.000
    C155     C        0.82088    0.77451    0.12936    1.000
    H85      H        0.83717    0.78803    0.10533    1.000
    C156     C        0.81429    0.74141    0.13678    1.000
    H86      H        0.82517    0.73163    0.11793    1.000
    C157     C        0.79110    0.72204    0.17289    1.000
    C158     C        0.77467    0.73645    0.19777    1.000
    H87      H        0.75847    0.72353    0.22213    1.000
    C159     C        0.78221    0.77045    0.18675    1.000
    H88      H        0.77007    0.78003    0.20313    1.000
    N65      N        0.81363    0.53795    0.02401    1.000
    C160     C        0.80099    0.52253    0.06626    1.000
    H89      H        0.79767    0.49973    0.07153    1.000
    C161     C        0.79259    0.53803    0.10187    1.000
    H90      H        0.78407    0.52643    0.13133    1.000
    C162     C        0.79676    0.57109    0.09437    1.000
    C163     C        0.81157    0.58801    0.05165    1.000
    H91      H        0.81617    0.61123    0.04613    1.000
    C164     C        0.81922    0.57081    0.01808    1.000
    H92      H        0.82897    0.58243    0.98903    1.000
    N66      N        0.70825    0.53971    0.41222    1.000
    C165     C        0.70947    0.56923    0.40163    1.000
    H93      H        0.70107    0.57923    0.42423    1.000
    C166     C        0.72254    0.58683    0.35967    1.000
    H94      H        0.72307    0.60843    0.35433    1.000
    C167     C        0.73440    0.57397    0.32649    1.000
    C168     C        0.73467    0.54353    0.33703    1.000
    H95      H        0.74387    0.53383    0.31523    1.000
    C169     C        0.72087    0.52703    0.38083    1.000
    H96      H        0.72077    0.50593    0.38793    1.000
    C170     C        0.78483    0.68593    0.18278    1.000
    N67      N        0.79380    0.67152    0.14690    1.000
    C171     C        0.78769    0.63877    0.15482    1.000
    N68      N        0.79544    0.62214    0.12069    1.000
    C172     C        0.78782    0.58968    0.13186    1.000
    N69      N        0.77430    0.57100    0.17167    1.000
    C173     C        0.76733    0.58816    0.20581    1.000
    N70      N        0.75408    0.57232    0.24829    1.000
    C174     C        0.74818    0.59125    0.27968    1.000
    N71      N        0.75294    0.62418    0.27592    1.000
    C175     C        0.76614    0.64019    0.23312    1.000
    N72      N        0.77151    0.67245    0.22545    1.000
    C176     C        0.77375    0.62229    0.19842    1.000
    Zn9      Zn       0.48606    0.17383    0.47357    1.000
    I9       I        0.55126    0.21262    0.47453    1.000
    N73      N        0.47215    0.12294    0.48777    1.000
    C177     C        0.48754    0.10785    0.46270    1.000
    H97      H        0.50383    0.12137    0.43867    1.000
    C178     C        0.48095    0.07475    0.47012    1.000
    H98      H        0.49183    0.06497    0.45127    1.000
    C179     C        0.45776    0.05538    0.50623    1.000
    C180     C        0.44133    0.06979    0.53111    1.000
    H99      H        0.42513    0.05687    0.55547    1.000
    C181     C        0.44887    0.10379    0.52009    1.000
    H100     H        0.43673    0.11337    0.53647    1.000
    N74      N        0.48029    0.87129    0.35735    1.000
    C182     C        0.46765    0.85587    0.39960    1.000
    H101     H        0.46433    0.83307    0.40487    1.000
    C183     C        0.45925    0.87137    0.43521    1.000
    H102     H        0.45073    0.85977    0.46467    1.000
    C184     C        0.46342    0.90443    0.42771    1.000
    C185     C        0.47823    0.92135    0.38499    1.000
    H103     H        0.48283    0.94457    0.37947    1.000
    C186     C        0.48588    0.90415    0.35142    1.000
    H104     H        0.49563    0.91577    0.32237    1.000
    N75      N        0.37491    0.87305    0.74556    1.000
    C187     C        0.37613    0.90257    0.73497    1.000
    H105     H        0.36773    0.91257    0.75757    1.000
    C188     C        0.38920    0.92017    0.69301    1.000
    H106     H        0.38973    0.94177    0.68767    1.000
    C189     C        0.40106    0.90731    0.65983    1.000
    C190     C        0.40133    0.87687    0.67037    1.000
    H107     H        0.41053    0.86717    0.64857    1.000
    C191     C        0.38753    0.86037    0.71417    1.000
    H108     H        0.38743    0.83927    0.72127    1.000
    C192     C        0.45149    0.01927    0.51612    1.000
    N76      N        0.46046    0.00486    0.48024    1.000
    C193     C        0.45435    0.97211    0.48816    1.000
    N77      N        0.46210    0.95548    0.45403    1.000
    C194     C        0.45448    0.92302    0.46520    1.000
    N78      N        0.44096    0.90434    0.50501    1.000
    C195     C        0.43399    0.92150    0.53915    1.000
    N79      N        0.42074    0.90566    0.58163    1.000
    C196     C        0.41484    0.92459    0.61302    1.000
    N80      N        0.41960    0.95752    0.60926    1.000
    C197     C        0.43280    0.97353    0.56646    1.000
    N81      N        0.43817    0.00579    0.55879    1.000
    C198     C        0.44041    0.95563    0.53176    1.000
    Zn10     Zn       0.35444    0.50716    0.30690    1.000
    I10      I        0.32803    0.54595    0.30786    1.000
    N82      N        0.31745    0.45627    0.32110    1.000
    C199     C        0.28697    0.44118    0.29603    1.000
    H109     H        0.28420    0.45470    0.27200    1.000
    C200     C        0.26046    0.40808    0.30345    1.000
    H110     H        0.23980    0.39830    0.28460    1.000
    C201     C        0.26428    0.38871    0.33956    1.000
    C202     C        0.29512    0.40312    0.36444    1.000
    H111     H        0.29840    0.39020    0.38880    1.000
    C203     C        0.32158    0.43712    0.35342    1.000
    H112     H        0.34330    0.44670    0.36980    1.000
    N83      N        0.05766    0.20462    0.19068    1.000
    C204     C        0.05488    0.18920    0.23293    1.000
    H113     H        0.03540    0.16640    0.23820    1.000
    C205     C        0.07878    0.20470    0.26854    1.000
    H114     H        0.07570    0.19310    0.29800    1.000
    C206     C        0.10767    0.23776    0.26104    1.000
    C207     C        0.10978    0.25468    0.21832    1.000
    H115     H        0.12840    0.27790    0.21280    1.000
    C208     C        0.08493    0.23748    0.18475    1.000
    H116     H        0.08680    0.24910    0.15570    1.000
    N84      N        0.16480    0.20638    0.57889    1.000
    C209     C        0.19310    0.23590    0.56830    1.000
    H117     H        0.21150    0.24590    0.59090    1.000
    C210     C        0.19763    0.25350    0.52634    1.000
    H118     H        0.21870    0.27510    0.52100    1.000
    C211     C        0.17291    0.24064    0.49316    1.000
    C212     C        0.14220    0.21020    0.50370    1.000
    H119     H        0.12330    0.20050    0.48190    1.000
    C213     C        0.13950    0.19370    0.54750    1.000
    H120     H        0.11850    0.17260    0.55460    1.000
    C214     C        0.23444    0.35260    0.34945    1.000
    N85      N        0.21106    0.33819    0.31357    1.000
    C215     C        0.18442    0.30544    0.32149    1.000
    N86      N        0.16004    0.28881    0.28736    1.000
    C216     C        0.13520    0.25635    0.29853    1.000
    N87      N        0.13004    0.23767    0.33834    1.000
    C217     C        0.15417    0.25483    0.37248    1.000
    N88      N        0.15158    0.23899    0.41496    1.000
    C218     C        0.17641    0.25792    0.44635    1.000
    N89      N        0.20458    0.29085    0.44259    1.000
    C219     C        0.20739    0.30686    0.39979    1.000
    N90      N        0.23428    0.33912    0.39212    1.000
    C220     C        0.18188    0.28896    0.36509    1.000
    Zn11     Zn       0.02110    0.84050    0.64023    1.000
    I11      I        0.99469    0.87929    0.64119    1.000
    N91      N        0.98412    0.78960    0.65443    1.000
    C221     C        0.95364    0.77451    0.62936    1.000
    H121     H        0.95087    0.78803    0.60533    1.000
    C222     C        0.92713    0.74141    0.63678    1.000
    H122     H        0.90647    0.73163    0.61793    1.000
    C223     C        0.93095    0.72204    0.67289    1.000
    C224     C        0.96179    0.73645    0.69777    1.000
    H123     H        0.96507    0.72353    0.72213    1.000
    C225     C        0.98825    0.77045    0.68675    1.000
    H124     H        0.00997    0.78003    0.70313    1.000
    N92      N        0.72433    0.53795    0.52401    1.000
    C226     C        0.72155    0.52253    0.56626    1.000
    H125     H        0.70207    0.49973    0.57153    1.000
    C227     C        0.74545    0.53803    0.60187    1.000
    H126     H        0.74237    0.52643    0.63133    1.000
    C228     C        0.77434    0.57109    0.59437    1.000
    C229     C        0.77645    0.58801    0.55165    1.000
    H127     H        0.79507    0.61123    0.54613    1.000
    C230     C        0.75160    0.57081    0.51808    1.000
    H128     H        0.75347    0.58243    0.48903    1.000
    N93      N        0.83147    0.53971    0.91222    1.000
    C231     C        0.85977    0.56923    0.90163    1.000
    H129     H        0.87817    0.57923    0.92423    1.000
    C232     C        0.86430    0.58683    0.85967    1.000
    H130     H        0.88537    0.60843    0.85433    1.000
    C233     C        0.83958    0.57397    0.82649    1.000
    C234     C        0.80887    0.54353    0.83703    1.000
    H131     H        0.78997    0.53383    0.81523    1.000
    C235     C        0.80617    0.52703    0.88083    1.000
    H132     H        0.78517    0.50593    0.88793    1.000
    C236     C        0.90111    0.68593    0.68278    1.000
    N94      N        0.87773    0.67152    0.64690    1.000
    C237     C        0.85109    0.63877    0.65482    1.000
    N95      N        0.82671    0.62214    0.62069    1.000
    C238     C        0.80187    0.58968    0.63186    1.000
    N96      N        0.79671    0.57100    0.67167    1.000
    C239     C        0.82084    0.58816    0.70581    1.000
    N97      N        0.81825    0.57232    0.74829    1.000
    C240     C        0.84308    0.59125    0.77968    1.000
    N98      N        0.87125    0.62418    0.77592    1.000
    C241     C        0.87406    0.64019    0.73312    1.000
    N99      N        0.90095    0.67245    0.72545    1.000
    C242     C        0.84855    0.62229    0.69842    1.000
    Zn12     Zn       0.68777    0.17383    0.97357    1.000
    I12      I        0.66136    0.21262    0.97453    1.000
    N100     N        0.65078    0.12294    0.98777    1.000
    C243     C        0.62030    0.10785    0.96270    1.000
    H133     H        0.61753    0.12137    0.93867    1.000
    C244     C        0.59379    0.07475    0.97012    1.000
    H134     H        0.57313    0.06497    0.95127    1.000
    C245     C        0.59761    0.05538    0.00623    1.000
    C246     C        0.62845    0.06979    0.03111    1.000
    H135     H        0.63173    0.05687    0.05547    1.000
    C247     C        0.65491    0.10379    0.02009    1.000
    H136     H        0.67663    0.11337    0.03647    1.000
    N101     N        0.39099    0.87129    0.85735    1.000
    C248     C        0.38821    0.85587    0.89960    1.000
    H137     H        0.36873    0.83307    0.90487    1.000
    C249     C        0.41211    0.87137    0.93521    1.000
    H138     H        0.40903    0.85977    0.96467    1.000
    C250     C        0.44100    0.90443    0.92771    1.000
    C251     C        0.44311    0.92135    0.88499    1.000
    H139     H        0.46173    0.94457    0.87947    1.000
    C252     C        0.41826    0.90415    0.85142    1.000
    H140     H        0.42013    0.91577    0.82237    1.000
    N102     N        0.49813    0.87305    0.24556    1.000
    C253     C        0.52643    0.90257    0.23497    1.000
    H141     H        0.54483    0.91257    0.25757    1.000
    C254     C        0.53096    0.92017    0.19301    1.000
    H142     H        0.55203    0.94177    0.18767    1.000
    C255     C        0.50624    0.90731    0.15983    1.000
    C256     C        0.47553    0.87687    0.17037    1.000
    H143     H        0.45663    0.86717    0.14857    1.000
    C257     C        0.47283    0.86037    0.21417    1.000
    H144     H        0.45183    0.83927    0.22127    1.000
    C258     C        0.56777    0.01927    0.01612    1.000
    N103     N        0.54439    0.00486    0.98024    1.000
    C259     C        0.51775    0.97211    0.98816    1.000
    N104     N        0.49337    0.95548    0.95403    1.000
    C260     C        0.46853    0.92302    0.96520    1.000
    N105     N        0.46337    0.90434    0.00501    1.000
    C261     C        0.48750    0.92150    0.03915    1.000
    N106     N        0.48491    0.90566    0.08163    1.000
    C262     C        0.50974    0.92459    0.11302    1.000
    N107     N        0.53791    0.95752    0.10926    1.000
    C263     C        0.54072    0.97353    0.06646    1.000
    N108     N        0.56761    0.00579    0.05879    1.000
    C264     C        0.51521    0.95563    0.03176    1.000
    Zn13     Zn       0.15273    0.64556    0.30690    1.000
    I13      I        0.21793    0.67197    0.30786    1.000
    N109     N        0.13882    0.68255    0.32110    1.000
    C265     C        0.15421    0.71303    0.29603    1.000
    H145     H        0.17050    0.71580    0.27200    1.000
    C266     C        0.14762    0.73954    0.30345    1.000
    H146     H        0.15850    0.76020    0.28460    1.000
    C267     C        0.12443    0.73572    0.33956    1.000
    C268     C        0.10800    0.70488    0.36444    1.000
    H147     H        0.09180    0.70160    0.38880    1.000
    C269     C        0.11554    0.67842    0.35342    1.000
    H148     H        0.10340    0.65670    0.36980    1.000
    N110     N        0.14696    0.94234    0.19068    1.000
    C270     C        0.13432    0.94512    0.23293    1.000
    H149     H        0.13100    0.96460    0.23820    1.000
    C271     C        0.12592    0.92122    0.26854    1.000
    H150     H        0.11740    0.92430    0.29800    1.000
    C272     C        0.13009    0.89233    0.26104    1.000
    C273     C        0.14490    0.89022    0.21832    1.000
    H151     H        0.14950    0.87160    0.21280    1.000
    C274     C        0.15255    0.91507    0.18475    1.000
    H152     H        0.16230    0.91320    0.15570    1.000
    N111     N        0.04158    0.83520    0.57889    1.000
    C275     C        0.04280    0.80690    0.56830    1.000
    H153     H        0.03440    0.78850    0.59090    1.000
    C276     C        0.05587    0.80237    0.52634    1.000
    H154     H        0.05640    0.78130    0.52100    1.000
    C277     C        0.06773    0.82709    0.49316    1.000
    C278     C        0.06800    0.85780    0.50370    1.000
    H155     H        0.07720    0.87670    0.48190    1.000
    C279     C        0.05420    0.86050    0.54750    1.000
    H156     H        0.05410    0.88150    0.55460    1.000
    C280     C        0.11816    0.76556    0.34945    1.000
    N112     N        0.12713    0.78894    0.31357    1.000
    C281     C        0.12102    0.81558    0.32149    1.000
    N113     N        0.12877    0.83996    0.28736    1.000
    C282     C        0.12115    0.86480    0.29853    1.000
    N114     N        0.10763    0.86996    0.33834    1.000
    C283     C        0.10066    0.84583    0.37248    1.000
    N115     N        0.08741    0.84842    0.41496    1.000
    C284     C        0.08151    0.82359    0.44635    1.000
    N116     N        0.08627    0.79542    0.44259    1.000
    C285     C        0.09947    0.79261    0.39979    1.000
    N117     N        0.10484    0.76572    0.39212    1.000
    C286     C        0.10708    0.81812    0.36509    1.000
    Zn14     Zn       0.81939    0.97890    0.64023    1.000
    I14      I        0.88459    0.00531    0.64119    1.000
    N118     N        0.80549    0.01588    0.65443    1.000
    C287     C        0.82088    0.04636    0.62936    1.000
    H157     H        0.83717    0.04913    0.60533    1.000
    C288     C        0.81429    0.07287    0.63678    1.000
    H158     H        0.82517    0.09353    0.61793    1.000
    C289     C        0.79110    0.06905    0.67289    1.000
    C290     C        0.77467    0.03821    0.69777    1.000
    H159     H        0.75847    0.03493    0.72213    1.000
    C291     C        0.78221    0.01175    0.68675    1.000
    H160     H        0.77007    0.99003    0.70313    1.000
    N119     N        0.81363    0.27567    0.52401    1.000
    C292     C        0.80099    0.27845    0.56626    1.000
    H161     H        0.79767    0.29793    0.57153    1.000
    C293     C        0.79259    0.25455    0.60187    1.000
    H162     H        0.78407    0.25763    0.63133    1.000
    C294     C        0.79676    0.22566    0.59437    1.000
    C295     C        0.81157    0.22355    0.55165    1.000
    H163     H        0.81617    0.20493    0.54613    1.000
    C296     C        0.81922    0.24840    0.51808    1.000
    H164     H        0.82897    0.24653    0.48903    1.000
    N120     N        0.70825    0.16853    0.91222    1.000
    C297     C        0.70947    0.14023    0.90163    1.000
    H165     H        0.70107    0.12183    0.92423    1.000
    C298     C        0.72254    0.13570    0.85967    1.000
    H166     H        0.72307    0.11463    0.85433    1.000
    C299     C        0.73440    0.16042    0.82649    1.000
    C300     C        0.73467    0.19113    0.83703    1.000
    H167     H        0.74387    0.21003    0.81523    1.000
    C301     C        0.72087    0.19383    0.88083    1.000
    H168     H        0.72077    0.21483    0.88793    1.000
    C302     C        0.78483    0.09889    0.68278    1.000
    N121     N        0.79380    0.12227    0.64690    1.000
    C303     C        0.78769    0.14891    0.65482    1.000
    N122     N        0.79544    0.17329    0.62069    1.000
    C304     C        0.78782    0.19813    0.63186    1.000
    N123     N        0.77430    0.20329    0.67167    1.000
    C305     C        0.76733    0.17916    0.70581    1.000
    N124     N        0.75408    0.18175    0.74829    1.000
    C306     C        0.74818    0.15692    0.77968    1.000
    N125     N        0.75294    0.12875    0.77592    1.000
    C307     C        0.76614    0.12594    0.73312    1.000
    N126     N        0.77151    0.09905    0.72545    1.000
    C308     C        0.77375    0.15145    0.69842    1.000
    Zn15     Zn       0.48606    0.31223    0.97357    1.000
    I15      I        0.55126    0.33864    0.97453    1.000
    N127     N        0.47215    0.34922    0.98777    1.000
    C309     C        0.48754    0.37970    0.96270    1.000
    H169     H        0.50383    0.38247    0.93867    1.000
    C310     C        0.48095    0.40621    0.97012    1.000
    H170     H        0.49183    0.42687    0.95127    1.000
    C311     C        0.45776    0.40239    0.00623    1.000
    C312     C        0.44133    0.37155    0.03111    1.000
    H171     H        0.42513    0.36827    0.05547    1.000
    C313     C        0.44887    0.34509    0.02009    1.000
    H172     H        0.43673    0.32337    0.03647    1.000
    N128     N        0.48029    0.60901    0.85735    1.000
    C314     C        0.46765    0.61179    0.89960    1.000
    H173     H        0.46433    0.63127    0.90487    1.000
    C315     C        0.45925    0.58789    0.93521    1.000
    H174     H        0.45073    0.59097    0.96467    1.000
    C316     C        0.46342    0.55900    0.92771    1.000
    C317     C        0.47823    0.55689    0.88499    1.000
    H175     H        0.48283    0.53827    0.87947    1.000
    C318     C        0.48588    0.58174    0.85142    1.000
    H176     H        0.49563    0.57987    0.82237    1.000
    N129     N        0.37491    0.50187    0.24556    1.000
    C319     C        0.37613    0.47357    0.23497    1.000
    H177     H        0.36773    0.45517    0.25757    1.000
    C320     C        0.38920    0.46904    0.19301    1.000
    H178     H        0.38973    0.44797    0.18767    1.000
    C321     C        0.40106    0.49376    0.15983    1.000
    C322     C        0.40133    0.52447    0.17037    1.000
    H179     H        0.41053    0.54337    0.14857    1.000
    C323     C        0.38753    0.52717    0.21417    1.000
    H180     H        0.38743    0.54817    0.22127    1.000
    C324     C        0.45149    0.43223    0.01612    1.000
    N130     N        0.46046    0.45561    0.98024    1.000
    C325     C        0.45435    0.48225    0.98816    1.000
    N131     N        0.46210    0.50663    0.95403    1.000
    C326     C        0.45448    0.53147    0.96520    1.000
    N132     N        0.44096    0.53663    0.00501    1.000
    C327     C        0.43399    0.51250    0.03915    1.000
    N133     N        0.42074    0.51509    0.08163    1.000
    C328     C        0.41484    0.49026    0.11302    1.000
    N134     N        0.41960    0.46209    0.10926    1.000
    C329     C        0.43280    0.45928    0.06646    1.000
    N135     N        0.43817    0.43239    0.05879    1.000
    C330     C        0.44041    0.48479    0.03176    1.000
    Zn16     Zn       0.49284    0.84727    0.30690    1.000
    I16      I        0.45405    0.78207    0.30786    1.000
    N136     N        0.54373    0.86118    0.32110    1.000
    C331     C        0.55882    0.84579    0.29603    1.000
    H181     H        0.54530    0.82950    0.27200    1.000
    C332     C        0.59192    0.85238    0.30345    1.000
    H182     H        0.60170    0.84150    0.28460    1.000
    C333     C        0.61129    0.87557    0.33956    1.000
    C334     C        0.59688    0.89200    0.36444    1.000
    H183     H        0.60980    0.90820    0.38880    1.000
    C335     C        0.56288    0.88446    0.35342    1.000
    H184     H        0.55330    0.89660    0.36980    1.000
    N137     N        0.79538    0.85304    0.19068    1.000
    C336     C        0.81080    0.86568    0.23293    1.000
    H185     H        0.83360    0.86900    0.23820    1.000
    C337     C        0.79530    0.87408    0.26854    1.000
    H186     H        0.80690    0.88260    0.29800    1.000
    C338     C        0.76224    0.86991    0.26104    1.000
    C339     C        0.74532    0.85510    0.21832    1.000
    H187     H        0.72210    0.85050    0.21280    1.000
    C340     C        0.76252    0.84745    0.18475    1.000
    H188     H        0.75090    0.83770    0.15570    1.000
    N138     N        0.79362    0.95842    0.57889    1.000
    C341     C        0.76410    0.95720    0.56830    1.000
    H189     H        0.75410    0.96560    0.59090    1.000
    C342     C        0.74650    0.94413    0.52634    1.000
    H190     H        0.72490    0.94360    0.52100    1.000
    C343     C        0.75936    0.93227    0.49316    1.000
    C344     C        0.78980    0.93200    0.50370    1.000
    H191     H        0.79950    0.92280    0.48190    1.000
    C345     C        0.80630    0.94580    0.54750    1.000
    H192     H        0.82740    0.94590    0.55460    1.000
    C346     C        0.64740    0.88184    0.34945    1.000
    N139     N        0.66181    0.87287    0.31357    1.000
    C347     C        0.69456    0.87898    0.32149    1.000
    N140     N        0.71119    0.87123    0.28736    1.000
    C348     C        0.74365    0.87885    0.29853    1.000
    N141     N        0.76233    0.89237    0.33834    1.000
    C349     C        0.74517    0.89934    0.37248    1.000
    N142     N        0.76101    0.91259    0.41496    1.000
    C350     C        0.74208    0.91849    0.44635    1.000
    N143     N        0.70915    0.91373    0.44259    1.000
    C351     C        0.69314    0.90053    0.39979    1.000
    N144     N        0.66088    0.89516    0.39212    1.000
    C352     C        0.71104    0.89292    0.36509    1.000
    Zn17     Zn       0.15950    0.18061    0.64023    1.000
    I17      I        0.12071    0.11541    0.64119    1.000
    N145     N        0.21040    0.19451    0.65443    1.000
    C353     C        0.22549    0.17912    0.62936    1.000
    H193     H        0.21197    0.16283    0.60533    1.000
    C354     C        0.25859    0.18571    0.63678    1.000
    H194     H        0.26837    0.17483    0.61793    1.000
    C355     C        0.27796    0.20890    0.67289    1.000
    C356     C        0.26355    0.22533    0.69777    1.000
    H195     H        0.27647    0.24153    0.72213    1.000
    C357     C        0.22955    0.21779    0.68675    1.000
    H196     H        0.21997    0.22993    0.70313    1.000
    N146     N        0.46205    0.18637    0.52401    1.000
    C358     C        0.47747    0.19901    0.56626    1.000
    H197     H        0.50027    0.20233    0.57153    1.000
    C359     C        0.46197    0.20741    0.60187    1.000
    H198     H        0.47357    0.21593    0.63133    1.000
    C360     C        0.42891    0.20324    0.59437    1.000
    C361     C        0.41199    0.18843    0.55165    1.000
    H199     H        0.38877    0.18383    0.54613    1.000
    C362     C        0.42919    0.18078    0.51808    1.000
    H200     H        0.41757    0.17103    0.48903    1.000
    N147     N        0.46029    0.29175    0.91222    1.000
    C363     C        0.43077    0.29053    0.90163    1.000
    H201     H        0.42077    0.29893    0.92423    1.000
    C364     C        0.41317    0.27746    0.85967    1.000
    H202     H        0.39157    0.27693    0.85433    1.000
    C365     C        0.42603    0.26560    0.82649    1.000
    C366     C        0.45647    0.26533    0.83703    1.000
    H203     H        0.46617    0.25613    0.81523    1.000
    C367     C        0.47297    0.27913    0.88083    1.000
    H204     H        0.49407    0.27923    0.88793    1.000
    C368     C        0.31407    0.21517    0.68278    1.000
    N148     N        0.32848    0.20620    0.64690    1.000
    C369     C        0.36123    0.21231    0.65482    1.000
    N149     N        0.37786    0.20456    0.62069    1.000
    C370     C        0.41032    0.21218    0.63186    1.000
    N150     N        0.42900    0.22570    0.67167    1.000
    C371     C        0.41184    0.23267    0.70581    1.000
    N151     N        0.42768    0.24592    0.74829    1.000
    C372     C        0.40875    0.25182    0.77968    1.000
    N152     N        0.37582    0.24706    0.77592    1.000
    C373     C        0.35981    0.23386    0.73312    1.000
    N153     N        0.32755    0.22849    0.72545    1.000
    C374     C        0.37771    0.22625    0.69842    1.000
    Zn18     Zn       0.82617    0.51394    0.97357    1.000
    I18      I        0.78738    0.44874    0.97453    1.000
    N154     N        0.87706    0.52785    0.98777    1.000
    C375     C        0.89215    0.51246    0.96270    1.000
    H205     H        0.87863    0.49617    0.93867    1.000
    C376     C        0.92525    0.51905    0.97012    1.000
    H206     H        0.93503    0.50817    0.95127    1.000
    C377     C        0.94462    0.54224    0.00623    1.000
    C378     C        0.93021    0.55867    0.03111    1.000
    H207     H        0.94313    0.57487    0.05547    1.000
    C379     C        0.89621    0.55113    0.02009    1.000
    H208     H        0.88663    0.56327    0.03647    1.000
    N155     N        0.12871    0.51971    0.85735    1.000
    C380     C        0.14413    0.53235    0.89960    1.000
    H209     H        0.16693    0.53567    0.90487    1.000
    C381     C        0.12863    0.54075    0.93521    1.000
    H210     H        0.14023    0.54927    0.96467    1.000
    C382     C        0.09557    0.53658    0.92771    1.000
    C383     C        0.07865    0.52177    0.88499    1.000
    H211     H        0.05543    0.51717    0.87947    1.000
    C384     C        0.09585    0.51412    0.85142    1.000
    H212     H        0.08423    0.50437    0.82237    1.000
    N156     N        0.12695    0.62509    0.24556    1.000
    C385     C        0.09743    0.62387    0.23497    1.000
    H213     H        0.08743    0.63227    0.25757    1.000
    C386     C        0.07983    0.61080    0.19301    1.000
    H214     H        0.05823    0.61027    0.18767    1.000
    C387     C        0.09269    0.59894    0.15983    1.000
    C388     C        0.12313    0.59867    0.17037    1.000
    H215     H        0.13283    0.58947    0.14857    1.000
    C389     C        0.13963    0.61247    0.21417    1.000
    H216     H        0.16073    0.61257    0.22127    1.000
    C390     C        0.98073    0.54851    0.01612    1.000
    N157     N        0.99514    0.53954    0.98024    1.000
    C391     C        0.02789    0.54565    0.98816    1.000
    N158     N        0.04452    0.53790    0.95403    1.000
    C392     C        0.07698    0.54552    0.96520    1.000
    N159     N        0.09566    0.55904    0.00501    1.000
    C393     C        0.07850    0.56601    0.03915    1.000
    N160     N        0.09434    0.57926    0.08163    1.000
    C394     C        0.07541    0.58516    0.11302    1.000
    N161     N        0.04248    0.58040    0.10926    1.000
    C395     C        0.02647    0.56720    0.06646    1.000
    N162     N        0.99421    0.56183    0.05879    1.000
    C396     C        0.04437    0.55959    0.03176    1.000
    Zn19     Zn       0.64556    0.49284    0.69310    1.000
    I19      I        0.67197    0.45405    0.69214    1.000
    N163     N        0.68255    0.54373    0.67890    1.000
    C397     C        0.71303    0.55882    0.70397    1.000
    H217     H        0.71580    0.54530    0.72800    1.000
    C398     C        0.73954    0.59192    0.69655    1.000
    H218     H        0.76020    0.60170    0.71540    1.000
    C399     C        0.73572    0.61129    0.66044    1.000
    C400     C        0.70488    0.59688    0.63556    1.000
    H219     H        0.70160    0.60980    0.61120    1.000
    C401     C        0.67842    0.56288    0.64658    1.000
    H220     H        0.65670    0.55330    0.63020    1.000
    N164     N        0.94234    0.79538    0.80932    1.000
    C402     C        0.94512    0.81080    0.76707    1.000
    H221     H        0.96460    0.83360    0.76180    1.000
    C403     C        0.92122    0.79530    0.73146    1.000
    H222     H        0.92430    0.80690    0.70200    1.000
    C404     C        0.89233    0.76224    0.73896    1.000
    C405     C        0.89022    0.74532    0.78168    1.000
    H223     H        0.87160    0.72210    0.78720    1.000
    C406     C        0.91507    0.76252    0.81525    1.000
    H224     H        0.91320    0.75090    0.84430    1.000
    N165     N        0.83520    0.79362    0.42111    1.000
    C407     C        0.80690    0.76410    0.43170    1.000
    H225     H        0.78850    0.75410    0.40910    1.000
    C408     C        0.80237    0.74650    0.47366    1.000
    H226     H        0.78130    0.72490    0.47900    1.000
    C409     C        0.82709    0.75936    0.50684    1.000
    C410     C        0.85780    0.78980    0.49630    1.000
    H227     H        0.87670    0.79950    0.51810    1.000
    C411     C        0.86050    0.80630    0.45250    1.000
    H228     H        0.88150    0.82740    0.44540    1.000
    C412     C        0.76556    0.64740    0.65055    1.000
    N166     N        0.78894    0.66181    0.68643    1.000
    C413     C        0.81558    0.69456    0.67851    1.000
    N167     N        0.83996    0.71119    0.71264    1.000
    C414     C        0.86480    0.74365    0.70147    1.000
    N168     N        0.86996    0.76233    0.66166    1.000
    C415     C        0.84583    0.74517    0.62752    1.000
    N169     N        0.84842    0.76101    0.58504    1.000
    C416     C        0.82359    0.74208    0.55365    1.000
    N170     N        0.79542    0.70915    0.55741    1.000
    C417     C        0.79261    0.69314    0.60021    1.000
    N171     N        0.76572    0.66088    0.60788    1.000
    C418     C        0.81812    0.71104    0.63491    1.000
    Zn20     Zn       0.31223    0.82617    0.02643    1.000
    I20      I        0.33864    0.78738    0.02547    1.000
    N172     N        0.34922    0.87706    0.01223    1.000
    C419     C        0.37970    0.89215    0.03730    1.000
    H229     H        0.38247    0.87863    0.06133    1.000
    C420     C        0.40621    0.92525    0.02988    1.000
    H230     H        0.42687    0.93503    0.04873    1.000
    C421     C        0.40239    0.94462    0.99377    1.000
    C422     C        0.37155    0.93021    0.96889    1.000
    H231     H        0.36827    0.94313    0.94453    1.000
    C423     C        0.34509    0.89621    0.97991    1.000
    H232     H        0.32337    0.88663    0.96353    1.000
    N173     N        0.60901    0.12871    0.14265    1.000
    C424     C        0.61179    0.14413    0.10040    1.000
    H233     H        0.63127    0.16693    0.09513    1.000
    C425     C        0.58789    0.12863    0.06479    1.000
    H234     H        0.59097    0.14023    0.03533    1.000
    C426     C        0.55900    0.09557    0.07229    1.000
    C427     C        0.55689    0.07865    0.11501    1.000
    H235     H        0.53827    0.05543    0.12053    1.000
    C428     C        0.58174    0.09585    0.14858    1.000
    H236     H        0.57987    0.08423    0.17763    1.000
    N174     N        0.50187    0.12695    0.75444    1.000
    C429     C        0.47357    0.09743    0.76503    1.000
    H237     H        0.45517    0.08743    0.74243    1.000
    C430     C        0.46904    0.07983    0.80699    1.000
    H238     H        0.44797    0.05823    0.81233    1.000
    C431     C        0.49376    0.09269    0.84017    1.000
    C432     C        0.52447    0.12313    0.82963    1.000
    H239     H        0.54337    0.13283    0.85143    1.000
    C433     C        0.52717    0.13963    0.78583    1.000
    H240     H        0.54817    0.16073    0.77873    1.000
    C434     C        0.43223    0.98073    0.98388    1.000
    N175     N        0.45561    0.99514    0.01976    1.000
    C435     C        0.48225    0.02789    0.01184    1.000
    N176     N        0.50663    0.04452    0.04597    1.000
    C436     C        0.53147    0.07698    0.03480    1.000
    N177     N        0.53663    0.09566    0.99499    1.000
    C437     C        0.51250    0.07850    0.96085    1.000
    N178     N        0.51509    0.09434    0.91837    1.000
    C438     C        0.49026    0.07541    0.88698    1.000
    N179     N        0.46209    0.04248    0.89074    1.000
    C439     C        0.45928    0.02647    0.93354    1.000
    N180     N        0.43239    0.99421    0.94121    1.000
    C440     C        0.48479    0.04437    0.96824    1.000
    Zn21     Zn       0.97890    0.15950    0.35977    1.000
    I21      I        0.00531    0.12071    0.35881    1.000
    N181     N        0.01588    0.21040    0.34557    1.000
    C441     C        0.04636    0.22549    0.37064    1.000
    H241     H        0.04913    0.21197    0.39467    1.000
    C442     C        0.07287    0.25859    0.36322    1.000
    H242     H        0.09353    0.26837    0.38207    1.000
    C443     C        0.06905    0.27796    0.32711    1.000
    C444     C        0.03821    0.26355    0.30223    1.000
    H243     H        0.03493    0.27647    0.27787    1.000
    C445     C        0.01175    0.22955    0.31325    1.000
    H244     H        0.99003    0.21997    0.29687    1.000
    N182     N        0.27567    0.46205    0.47599    1.000
    C446     C        0.27845    0.47747    0.43374    1.000
    H245     H        0.29793    0.50027    0.42847    1.000
    C447     C        0.25455    0.46197    0.39813    1.000
    H246     H        0.25763    0.47357    0.36867    1.000
    C448     C        0.22566    0.42891    0.40563    1.000
    C449     C        0.22355    0.41199    0.44835    1.000
    H247     H        0.20493    0.38877    0.45387    1.000
    C450     C        0.24840    0.42919    0.48192    1.000
    H248     H        0.24653    0.41757    0.51097    1.000
    N183     N        0.16853    0.46029    0.08778    1.000
    C451     C        0.14023    0.43077    0.09837    1.000
    H249     H        0.12183    0.42077    0.07577    1.000
    C452     C        0.13570    0.41317    0.14033    1.000
    H250     H        0.11463    0.39157    0.14567    1.000
    C453     C        0.16042    0.42603    0.17351    1.000
    C454     C        0.19113    0.45647    0.16297    1.000
    H251     H        0.21003    0.46617    0.18477    1.000
    C455     C        0.19383    0.47297    0.11917    1.000
    H252     H        0.21483    0.49407    0.11207    1.000
    C456     C        0.09889    0.31407    0.31722    1.000
    N184     N        0.12227    0.32848    0.35310    1.000
    C457     C        0.14891    0.36123    0.34518    1.000
    N185     N        0.17329    0.37786    0.37931    1.000
    C458     C        0.19813    0.41032    0.36814    1.000
    N186     N        0.20329    0.42900    0.32833    1.000
    C459     C        0.17916    0.41184    0.29419    1.000
    N187     N        0.18175    0.42768    0.25171    1.000
    C460     C        0.15692    0.40875    0.22032    1.000
    N188     N        0.12875    0.37582    0.22408    1.000
    C461     C        0.12594    0.35981    0.26688    1.000
    N189     N        0.09905    0.32755    0.27455    1.000
    C462     C        0.15145    0.37771    0.30158    1.000
    Zn22     Zn       0.84727    0.35444    0.69310    1.000
    I22      I        0.78207    0.32803    0.69214    1.000
    N190     N        0.86118    0.31745    0.67890    1.000
    C463     C        0.84579    0.28697    0.70397    1.000
    H253     H        0.82950    0.28420    0.72800    1.000
    C464     C        0.85238    0.26046    0.69655    1.000
    H254     H        0.84150    0.23980    0.71540    1.000
    C465     C        0.87557    0.26428    0.66044    1.000
    C466     C        0.89200    0.29512    0.63556    1.000
    H255     H        0.90820    0.29840    0.61120    1.000
    C467     C        0.88446    0.32158    0.64658    1.000
    H256     H        0.89660    0.34330    0.63020    1.000
    N191     N        0.85304    0.05766    0.80932    1.000
    C468     C        0.86568    0.05488    0.76707    1.000
    H257     H        0.86900    0.03540    0.76180    1.000
    C469     C        0.87408    0.07878    0.73146    1.000
    H258     H        0.88260    0.07570    0.70200    1.000
    C470     C        0.86991    0.10767    0.73896    1.000
    C471     C        0.85510    0.10978    0.78168    1.000
    H259     H        0.85050    0.12840    0.78720    1.000
    C472     C        0.84745    0.08493    0.81525    1.000
    H260     H        0.83770    0.08680    0.84430    1.000
    N192     N        0.95842    0.16480    0.42111    1.000
    C473     C        0.95720    0.19310    0.43170    1.000
    H261     H        0.96560    0.21150    0.40910    1.000
    C474     C        0.94413    0.19763    0.47366    1.000
    H262     H        0.94360    0.21870    0.47900    1.000
    C475     C        0.93227    0.17291    0.50684    1.000
    C476     C        0.93200    0.14220    0.49630    1.000
    H263     H        0.92280    0.12330    0.51810    1.000
    C477     C        0.94580    0.13950    0.45250    1.000
    H264     H        0.94590    0.11850    0.44540    1.000
    C478     C        0.88184    0.23444    0.65055    1.000
    N193     N        0.87287    0.21106    0.68643    1.000
    C479     C        0.87898    0.18442    0.67851    1.000
    N194     N        0.87123    0.16004    0.71264    1.000
    C480     C        0.87885    0.13520    0.70147    1.000
    N195     N        0.89237    0.13004    0.66166    1.000
    C481     C        0.89934    0.15417    0.62752    1.000
    N196     N        0.91259    0.15158    0.58504    1.000
    C482     C        0.91849    0.17641    0.55365    1.000
    N197     N        0.91373    0.20458    0.55741    1.000
    C483     C        0.90053    0.20739    0.60021    1.000
    N198     N        0.89516    0.23428    0.60788    1.000
    C484     C        0.89292    0.18188    0.63491    1.000
    Zn23     Zn       0.51394    0.68777    0.02643    1.000
    I23      I        0.44874    0.66136    0.02547    1.000
    N199     N        0.52785    0.65078    0.01223    1.000
    C485     C        0.51246    0.62030    0.03730    1.000
    H265     H        0.49617    0.61753    0.06133    1.000
    C486     C        0.51905    0.59379    0.02988    1.000
    H266     H        0.50817    0.57313    0.04873    1.000
    C487     C        0.54224    0.59761    0.99377    1.000
    C488     C        0.55867    0.62845    0.96889    1.000
    H267     H        0.57487    0.63173    0.94453    1.000
    C489     C        0.55113    0.65491    0.97991    1.000
    H268     H        0.56327    0.67663    0.96353    1.000
    N200     N        0.51971    0.39099    0.14265    1.000
    C490     C        0.53235    0.38821    0.10040    1.000
    H269     H        0.53567    0.36873    0.09513    1.000
    C491     C        0.54075    0.41211    0.06479    1.000
    H270     H        0.54927    0.40903    0.03533    1.000
    C492     C        0.53658    0.44100    0.07229    1.000
    C493     C        0.52177    0.44311    0.11501    1.000
    H271     H        0.51717    0.46173    0.12053    1.000
    C494     C        0.51412    0.41826    0.14858    1.000
    H272     H        0.50437    0.42013    0.17763    1.000
    N201     N        0.62509    0.49813    0.75444    1.000
    C495     C        0.62387    0.52643    0.76503    1.000
    H273     H        0.63227    0.54483    0.74243    1.000
    C496     C        0.61080    0.53096    0.80699    1.000
    H274     H        0.61027    0.55203    0.81233    1.000
    C497     C        0.59894    0.50624    0.84017    1.000
    C498     C        0.59867    0.47553    0.82963    1.000
    H275     H        0.58947    0.45663    0.85143    1.000
    C499     C        0.61247    0.47283    0.78583    1.000
    H276     H        0.61257    0.45183    0.77873    1.000
    C500     C        0.54851    0.56777    0.98388    1.000
    N202     N        0.53954    0.54439    0.01976    1.000
    C501     C        0.54565    0.51775    0.01184    1.000
    N203     N        0.53790    0.49337    0.04597    1.000
    C502     C        0.54552    0.46853    0.03480    1.000
    N204     N        0.55904    0.46337    0.99499    1.000
    C503     C        0.56601    0.48750    0.96085    1.000
    N205     N        0.57926    0.48491    0.91837    1.000
    C504     C        0.58516    0.50974    0.88698    1.000
    N206     N        0.58040    0.53791    0.89074    1.000
    C505     C        0.56720    0.54072    0.93354    1.000
    N207     N        0.56183    0.56761    0.94121    1.000
    C506     C        0.55959    0.51521    0.96824    1.000
    Zn24     Zn       0.18061    0.02110    0.35977    1.000
    I24      I        0.11541    0.99469    0.35881    1.000
    N208     N        0.19451    0.98412    0.34557    1.000
    C507     C        0.17912    0.95364    0.37064    1.000
    H277     H        0.16283    0.95087    0.39467    1.000
    C508     C        0.18571    0.92713    0.36322    1.000
    H278     H        0.17483    0.90647    0.38207    1.000
    C509     C        0.20890    0.93095    0.32711    1.000
    C510     C        0.22533    0.96179    0.30223    1.000
    H279     H        0.24153    0.96507    0.27787    1.000
    C511     C        0.21779    0.98825    0.31325    1.000
    H280     H        0.22993    0.00997    0.29687    1.000
    N209     N        0.18637    0.72433    0.47599    1.000
    C512     C        0.19901    0.72155    0.43374    1.000
    H281     H        0.20233    0.70207    0.42847    1.000
    C513     C        0.20741    0.74545    0.39813    1.000
    H282     H        0.21593    0.74237    0.36867    1.000
    C514     C        0.20324    0.77434    0.40563    1.000
    C515     C        0.18843    0.77645    0.44835    1.000
    H283     H        0.18383    0.79507    0.45387    1.000
    C516     C        0.18078    0.75160    0.48192    1.000
    H284     H        0.17103    0.75347    0.51097    1.000
    N210     N        0.29175    0.83147    0.08778    1.000
    C517     C        0.29053    0.85977    0.09837    1.000
    H285     H        0.29893    0.87817    0.07577    1.000
    C518     C        0.27746    0.86430    0.14033    1.000
    H286     H        0.27693    0.88537    0.14567    1.000
    C519     C        0.26560    0.83958    0.17351    1.000
    C520     C        0.26533    0.80887    0.16297    1.000
    H287     H        0.25613    0.78997    0.18477    1.000
    C521     C        0.27913    0.80617    0.11917    1.000
    H288     H        0.27923    0.78517    0.11207    1.000
    C522     C        0.21517    0.90111    0.31722    1.000
    N211     N        0.20620    0.87773    0.35310    1.000
    C523     C        0.21231    0.85109    0.34518    1.000
    N212     N        0.20456    0.82671    0.37931    1.000
    C524     C        0.21218    0.80187    0.36814    1.000
    N213     N        0.22570    0.79671    0.32833    1.000
    C525     C        0.23267    0.82084    0.29419    1.000
    N214     N        0.24592    0.81825    0.25171    1.000
    C526     C        0.25182    0.84308    0.22032    1.000
    N215     N        0.24706    0.87125    0.22408    1.000
    C527     C        0.23386    0.87406    0.26688    1.000
    N216     N        0.22849    0.90095    0.27455    1.000
    C528     C        0.22625    0.84855    0.30158    1.000
    Zn25     Zn       0.50716    0.15273    0.69310    1.000
    I25      I        0.54595    0.21793    0.69214    1.000
    N217     N        0.45627    0.13882    0.67890    1.000
    C529     C        0.44118    0.15421    0.70397    1.000
    H289     H        0.45470    0.17050    0.72800    1.000
    C530     C        0.40808    0.14762    0.69655    1.000
    H290     H        0.39830    0.15850    0.71540    1.000
    C531     C        0.38871    0.12443    0.66044    1.000
    C532     C        0.40312    0.10800    0.63556    1.000
    H291     H        0.39020    0.09180    0.61120    1.000
    C533     C        0.43712    0.11554    0.64658    1.000
    H292     H        0.44670    0.10340    0.63020    1.000
    N218     N        0.20462    0.14696    0.80932    1.000
    C534     C        0.18920    0.13432    0.76707    1.000
    H293     H        0.16640    0.13100    0.76180    1.000
    C535     C        0.20470    0.12592    0.73146    1.000
    H294     H        0.19310    0.11740    0.70200    1.000
    C536     C        0.23776    0.13009    0.73896    1.000
    C537     C        0.25468    0.14490    0.78168    1.000
    H295     H        0.27790    0.14950    0.78720    1.000
    C538     C        0.23748    0.15255    0.81525    1.000
    H296     H        0.24910    0.16230    0.84430    1.000
    N219     N        0.20638    0.04158    0.42111    1.000
    C539     C        0.23590    0.04280    0.43170    1.000
    H297     H        0.24590    0.03440    0.40910    1.000
    C540     C        0.25350    0.05587    0.47366    1.000
    H298     H        0.27510    0.05640    0.47900    1.000
    C541     C        0.24064    0.06773    0.50684    1.000
    C542     C        0.21020    0.06800    0.49630    1.000
    H299     H        0.20050    0.07720    0.51810    1.000
    C543     C        0.19370    0.05420    0.45250    1.000
    H300     H        0.17260    0.05410    0.44540    1.000
    C544     C        0.35260    0.11816    0.65055    1.000
    N220     N        0.33819    0.12713    0.68643    1.000
    C545     C        0.30544    0.12102    0.67851    1.000
    N221     N        0.28881    0.12877    0.71264    1.000
    C546     C        0.25635    0.12115    0.70147    1.000
    N222     N        0.23767    0.10763    0.66166    1.000
    C547     C        0.25483    0.10066    0.62752    1.000
    N223     N        0.23899    0.08741    0.58504    1.000
    C548     C        0.25792    0.08151    0.55365    1.000
    N224     N        0.29085    0.08627    0.55741    1.000
    C549     C        0.30686    0.09947    0.60021    1.000
    N225     N        0.33912    0.10484    0.60788    1.000
    C550     C        0.28896    0.10708    0.63491    1.000
    Zn26     Zn       0.17383    0.48606    0.02643    1.000
    I26      I        0.21262    0.55126    0.02547    1.000
    N226     N        0.12294    0.47215    0.01223    1.000
    C551     C        0.10785    0.48754    0.03730    1.000
    H301     H        0.12137    0.50383    0.06133    1.000
    C552     C        0.07475    0.48095    0.02988    1.000
    H302     H        0.06497    0.49183    0.04873    1.000
    C553     C        0.05538    0.45776    0.99377    1.000
    C554     C        0.06979    0.44133    0.96889    1.000
    H303     H        0.05687    0.42513    0.94453    1.000
    C555     C        0.10379    0.44887    0.97991    1.000
    H304     H        0.11337    0.43673    0.96353    1.000
    N227     N        0.87129    0.48029    0.14265    1.000
    C556     C        0.85587    0.46765    0.10040    1.000
    H305     H        0.83307    0.46433    0.09513    1.000
    C557     C        0.87137    0.45925    0.06479    1.000
    H306     H        0.85977    0.45073    0.03533    1.000
    C558     C        0.90443    0.46342    0.07229    1.000
    C559     C        0.92135    0.47823    0.11501    1.000
    H307     H        0.94457    0.48283    0.12053    1.000
    C560     C        0.90415    0.48588    0.14858    1.000
    H308     H        0.91577    0.49563    0.17763    1.000
    N228     N        0.87305    0.37491    0.75444    1.000
    C561     C        0.90257    0.37613    0.76503    1.000
    H309     H        0.91257    0.36773    0.74243    1.000
    C562     C        0.92017    0.38920    0.80699    1.000
    H310     H        0.94177    0.38973    0.81233    1.000
    C563     C        0.90731    0.40106    0.84017    1.000
    C564     C        0.87687    0.40133    0.82963    1.000
    H311     H        0.86717    0.41053    0.85143    1.000
    C565     C        0.86037    0.38753    0.78583    1.000
    H312     H        0.83927    0.38743    0.77873    1.000
    C566     C        0.01927    0.45149    0.98388    1.000
    N229     N        0.00486    0.46046    0.01976    1.000
    C567     C        0.97211    0.45435    0.01184    1.000
    N230     N        0.95548    0.46210    0.04597    1.000
    C568     C        0.92302    0.45448    0.03480    1.000
    N231     N        0.90434    0.44096    0.99499    1.000
    C569     C        0.92150    0.43399    0.96085    1.000
    N232     N        0.90566    0.42074    0.91837    1.000
    C570     C        0.92459    0.41484    0.88698    1.000
    N233     N        0.95752    0.41960    0.89074    1.000
    C571     C        0.97353    0.43280    0.93354    1.000
    N234     N        0.00579    0.43817    0.94121    1.000
    C572     C        0.95563    0.44041    0.96824    1.000
    Zn27     Zn       0.84050    0.81939    0.35977    1.000
    I27      I        0.87929    0.88459    0.35881    1.000
    N235     N        0.78960    0.80549    0.34557    1.000
    C573     C        0.77451    0.82088    0.37064    1.000
    H313     H        0.78803    0.83717    0.39467    1.000
    C574     C        0.74141    0.81429    0.36322    1.000
    H314     H        0.73163    0.82517    0.38207    1.000
    C575     C        0.72204    0.79110    0.32711    1.000
    C576     C        0.73645    0.77467    0.30223    1.000
    H315     H        0.72353    0.75847    0.27787    1.000
    C577     C        0.77045    0.78221    0.31325    1.000
    H316     H        0.78003    0.77007    0.29687    1.000
    N236     N        0.53795    0.81363    0.47599    1.000
    C578     C        0.52253    0.80099    0.43374    1.000
    H317     H        0.49973    0.79767    0.42847    1.000
    C579     C        0.53803    0.79259    0.39813    1.000
    H318     H        0.52643    0.78407    0.36867    1.000
    C580     C        0.57109    0.79676    0.40563    1.000
    C581     C        0.58801    0.81157    0.44835    1.000
    H319     H        0.61123    0.81617    0.45387    1.000
    C582     C        0.57081    0.81922    0.48192    1.000
    H320     H        0.58243    0.82897    0.51097    1.000
    N237     N        0.53971    0.70825    0.08778    1.000
    C583     C        0.56923    0.70947    0.09837    1.000
    H321     H        0.57923    0.70107    0.07577    1.000
    C584     C        0.58683    0.72254    0.14033    1.000
    H322     H        0.60843    0.72307    0.14567    1.000
    C585     C        0.57397    0.73440    0.17351    1.000
    C586     C        0.54353    0.73467    0.16297    1.000
    H323     H        0.53383    0.74387    0.18477    1.000
    C587     C        0.52703    0.72087    0.11917    1.000
    H324     H        0.50593    0.72077    0.11207    1.000
    C588     C        0.68593    0.78483    0.31722    1.000
    N238     N        0.67152    0.79380    0.35310    1.000
    C589     C        0.63877    0.78769    0.34518    1.000
    N239     N        0.62214    0.79544    0.37931    1.000
    C590     C        0.58968    0.78782    0.36814    1.000
    N240     N        0.57100    0.77430    0.32833    1.000
    C591     C        0.58816    0.76733    0.29419    1.000
    N241     N        0.57232    0.75408    0.25171    1.000
    C592     C        0.59125    0.74818    0.22032    1.000
    N242     N        0.62418    0.75294    0.22408    1.000
    C593     C        0.64019    0.76614    0.26688    1.000
    N243     N        0.67245    0.77151    0.27455    1.000
    C594     C        0.62229    0.77375    0.30158    1.000
    Zn28     Zn       0.50716    0.35444    0.19310    1.000
    I28      I        0.54595    0.32803    0.19214    1.000
    N244     N        0.45627    0.31745    0.17890    1.000
    C595     C        0.44118    0.28697    0.20397    1.000
    H325     H        0.45470    0.28420    0.22800    1.000
    C596     C        0.40808    0.26046    0.19655    1.000
    H326     H        0.39830    0.23980    0.21540    1.000
    C597     C        0.38871    0.26428    0.16044    1.000
    C598     C        0.40312    0.29512    0.13556    1.000
    H327     H        0.39020    0.29840    0.11120    1.000
    C599     C        0.43712    0.32158    0.14658    1.000
    H328     H        0.44670    0.34330    0.13020    1.000
    N245     N        0.20462    0.05766    0.30932    1.000
    C600     C        0.18920    0.05488    0.26707    1.000
    H329     H        0.16640    0.03540    0.26180    1.000
    C601     C        0.20470    0.07878    0.23146    1.000
    H330     H        0.19310    0.07570    0.20200    1.000
    C602     C        0.23776    0.10767    0.23896    1.000
    C603     C        0.25468    0.10978    0.28168    1.000
    H331     H        0.27790    0.12840    0.28720    1.000
    C604     C        0.23748    0.08493    0.31525    1.000
    H332     H        0.24910    0.08680    0.34430    1.000
    N246     N        0.20638    0.16480    0.92111    1.000
    C605     C        0.23590    0.19310    0.93170    1.000
    H333     H        0.24590    0.21150    0.90910    1.000
    C606     C        0.25350    0.19763    0.97366    1.000
    H334     H        0.27510    0.21870    0.97900    1.000
    C607     C        0.24064    0.17291    0.00684    1.000
    C608     C        0.21020    0.14220    0.99630    1.000
    H335     H        0.20050    0.12330    0.01810    1.000
    C609     C        0.19370    0.13950    0.95250    1.000
    H336     H        0.17260    0.11850    0.94540    1.000
    C610     C        0.35260    0.23444    0.15055    1.000
    N247     N        0.33819    0.21106    0.18643    1.000
    C611     C        0.30544    0.18442    0.17851    1.000
    N248     N        0.28881    0.16004    0.21264    1.000
    C612     C        0.25635    0.13520    0.20147    1.000
    N249     N        0.23767    0.13004    0.16166    1.000
    C613     C        0.25483    0.15417    0.12752    1.000
    N250     N        0.23899    0.15158    0.08504    1.000
    C614     C        0.25792    0.17641    0.05365    1.000
    N251     N        0.29085    0.20458    0.05741    1.000
    C615     C        0.30686    0.20739    0.10021    1.000
    N252     N        0.33912    0.23428    0.10788    1.000
    C616     C        0.28896    0.18188    0.13491    1.000
    Zn29     Zn       0.17383    0.68777    0.52643    1.000
    I29      I        0.21262    0.66136    0.52547    1.000
    N253     N        0.12294    0.65078    0.51223    1.000
    C617     C        0.10785    0.62030    0.53730    1.000
    H337     H        0.12137    0.61753    0.56133    1.000
    C618     C        0.07475    0.59379    0.52988    1.000
    H338     H        0.06497    0.57313    0.54873    1.000
    C619     C        0.05538    0.59761    0.49377    1.000
    C620     C        0.06979    0.62845    0.46889    1.000
    H339     H        0.05687    0.63173    0.44453    1.000
    C621     C        0.10379    0.65491    0.47991    1.000
    H340     H        0.11337    0.67663    0.46353    1.000
    N254     N        0.87129    0.39099    0.64265    1.000
    C622     C        0.85587    0.38821    0.60040    1.000
    H341     H        0.83307    0.36873    0.59513    1.000
    C623     C        0.87137    0.41211    0.56479    1.000
    H342     H        0.85977    0.40903    0.53533    1.000
    C624     C        0.90443    0.44100    0.57229    1.000
    C625     C        0.92135    0.44311    0.61501    1.000
    H343     H        0.94457    0.46173    0.62053    1.000
    C626     C        0.90415    0.41826    0.64858    1.000
    H344     H        0.91577    0.42013    0.67763    1.000
    N255     N        0.87305    0.49813    0.25444    1.000
    C627     C        0.90257    0.52643    0.26503    1.000
    H345     H        0.91257    0.54483    0.24243    1.000
    C628     C        0.92017    0.53096    0.30699    1.000
    H346     H        0.94177    0.55203    0.31233    1.000
    C629     C        0.90731    0.50624    0.34017    1.000
    C630     C        0.87687    0.47553    0.32963    1.000
    H347     H        0.86717    0.45663    0.35143    1.000
    C631     C        0.86037    0.47283    0.28583    1.000
    H348     H        0.83927    0.45183    0.27873    1.000
    C632     C        0.01927    0.56777    0.48388    1.000
    N256     N        0.00486    0.54439    0.51976    1.000
    C633     C        0.97211    0.51775    0.51184    1.000
    N257     N        0.95548    0.49337    0.54597    1.000
    C634     C        0.92302    0.46853    0.53480    1.000
    N258     N        0.90434    0.46337    0.49499    1.000
    C635     C        0.92150    0.48750    0.46085    1.000
    N259     N        0.90566    0.48491    0.41837    1.000
    C636     C        0.92459    0.50974    0.38698    1.000
    N260     N        0.95752    0.53791    0.39074    1.000
    C637     C        0.97353    0.54072    0.43354    1.000
    N261     N        0.00579    0.56761    0.44121    1.000
    C638     C        0.95563    0.51521    0.46824    1.000
    Zn30     Zn       0.84050    0.02110    0.85977    1.000
    I30      I        0.87929    0.99469    0.85881    1.000
    N262     N        0.78960    0.98412    0.84557    1.000
    C639     C        0.77451    0.95364    0.87064    1.000
    H349     H        0.78803    0.95087    0.89467    1.000
    C640     C        0.74141    0.92713    0.86322    1.000
    H350     H        0.73163    0.90647    0.88207    1.000
    C641     C        0.72204    0.93095    0.82711    1.000
    C642     C        0.73645    0.96179    0.80223    1.000
    H351     H        0.72353    0.96507    0.77787    1.000
    C643     C        0.77045    0.98825    0.81325    1.000
    H352     H        0.78003    0.00997    0.79687    1.000
    N263     N        0.53795    0.72433    0.97599    1.000
    C644     C        0.52253    0.72155    0.93374    1.000
    H353     H        0.49973    0.70207    0.92847    1.000
    C645     C        0.53803    0.74545    0.89813    1.000
    H354     H        0.52643    0.74237    0.86867    1.000
    C646     C        0.57109    0.77434    0.90563    1.000
    C647     C        0.58801    0.77645    0.94835    1.000
    H355     H        0.61123    0.79507    0.95387    1.000
    C648     C        0.57081    0.75160    0.98192    1.000
    H356     H        0.58243    0.75347    0.01097    1.000
    N264     N        0.53971    0.83147    0.58778    1.000
    C649     C        0.56923    0.85977    0.59837    1.000
    H357     H        0.57923    0.87817    0.57577    1.000
    C650     C        0.58683    0.86430    0.64033    1.000
    H358     H        0.60843    0.88537    0.64567    1.000
    C651     C        0.57397    0.83958    0.67351    1.000
    C652     C        0.54353    0.80887    0.66297    1.000
    H359     H        0.53383    0.78997    0.68477    1.000
    C653     C        0.52703    0.80617    0.61917    1.000
    H360     H        0.50593    0.78517    0.61207    1.000
    C654     C        0.68593    0.90111    0.81722    1.000
    N265     N        0.67152    0.87773    0.85310    1.000
    C655     C        0.63877    0.85109    0.84518    1.000
    N266     N        0.62214    0.82671    0.87931    1.000
    C656     C        0.58968    0.80187    0.86814    1.000
    N267     N        0.57100    0.79671    0.82833    1.000
    C657     C        0.58816    0.82084    0.79419    1.000
    N268     N        0.57232    0.81825    0.75171    1.000
    C658     C        0.59125    0.84308    0.72032    1.000
    N269     N        0.62418    0.87125    0.72408    1.000
    C659     C        0.64019    0.87406    0.76688    1.000
    N270     N        0.67245    0.90095    0.77455    1.000
    C660     C        0.62229    0.84855    0.80158    1.000
    Zn31     Zn       0.64556    0.15273    0.19310    1.000
    I31      I        0.67197    0.21793    0.19214    1.000
    N271     N        0.68255    0.13882    0.17890    1.000
    C661     C        0.71303    0.15421    0.20397    1.000
    H361     H        0.71580    0.17050    0.22800    1.000
    C662     C        0.73954    0.14762    0.19655    1.000
    H362     H        0.76020    0.15850    0.21540    1.000
    C663     C        0.73572    0.12443    0.16044    1.000
    C664     C        0.70488    0.10800    0.13556    1.000
    H363     H        0.70160    0.09180    0.11120    1.000
    C665     C        0.67842    0.11554    0.14658    1.000
    H364     H        0.65670    0.10340    0.13020    1.000
    N272     N        0.94234    0.14696    0.30932    1.000
    C666     C        0.94512    0.13432    0.26707    1.000
    H365     H        0.96460    0.13100    0.26180    1.000
    C667     C        0.92122    0.12592    0.23146    1.000
    H366     H        0.92430    0.11740    0.20200    1.000
    C668     C        0.89233    0.13009    0.23896    1.000
    C669     C        0.89022    0.14490    0.28168    1.000
    H367     H        0.87160    0.14950    0.28720    1.000
    C670     C        0.91507    0.15255    0.31525    1.000
    H368     H        0.91320    0.16230    0.34430    1.000
    N273     N        0.83520    0.04158    0.92111    1.000
    C671     C        0.80690    0.04280    0.93170    1.000
    H369     H        0.78850    0.03440    0.90910    1.000
    C672     C        0.80237    0.05587    0.97366    1.000
    H370     H        0.78130    0.05640    0.97900    1.000
    C673     C        0.82709    0.06773    0.00684    1.000
    C674     C        0.85780    0.06800    0.99630    1.000
    H371     H        0.87670    0.07720    0.01810    1.000
    C675     C        0.86050    0.05420    0.95250    1.000
    H372     H        0.88150    0.05410    0.94540    1.000
    C676     C        0.76556    0.11816    0.15055    1.000
    N274     N        0.78894    0.12713    0.18643    1.000
    C677     C        0.81558    0.12102    0.17851    1.000
    N275     N        0.83996    0.12877    0.21264    1.000
    C678     C        0.86480    0.12115    0.20147    1.000
    N276     N        0.86996    0.10763    0.16166    1.000
    C679     C        0.84583    0.10066    0.12752    1.000
    N277     N        0.84842    0.08741    0.08504    1.000
    C680     C        0.82359    0.08151    0.05365    1.000
    N278     N        0.79542    0.08627    0.05741    1.000
    C681     C        0.79261    0.09947    0.10021    1.000
    N279     N        0.76572    0.10484    0.10788    1.000
    C682     C        0.81812    0.10708    0.13491    1.000
    Zn32     Zn       0.31223    0.48606    0.52643    1.000
    I32      I        0.33864    0.55126    0.52547    1.000
    N280     N        0.34922    0.47215    0.51223    1.000
    C683     C        0.37970    0.48754    0.53730    1.000
    H373     H        0.38247    0.50383    0.56133    1.000
    C684     C        0.40621    0.48095    0.52988    1.000
    H374     H        0.42687    0.49183    0.54873    1.000
    C685     C        0.40239    0.45776    0.49377    1.000
    C686     C        0.37155    0.44133    0.46889    1.000
    H375     H        0.36827    0.42513    0.44453    1.000
    C687     C        0.34509    0.44887    0.47991    1.000
    H376     H        0.32337    0.43673    0.46353    1.000
    N281     N        0.60901    0.48029    0.64265    1.000
    C688     C        0.61179    0.46765    0.60040    1.000
    H377     H        0.63127    0.46433    0.59513    1.000
    C689     C        0.58789    0.45925    0.56479    1.000
    H378     H        0.59097    0.45073    0.53533    1.000
    C690     C        0.55900    0.46342    0.57229    1.000
    C691     C        0.55689    0.47823    0.61501    1.000
    H379     H        0.53827    0.48283    0.62053    1.000
    C692     C        0.58174    0.48588    0.64858    1.000
    H380     H        0.57987    0.49563    0.67763    1.000
    N282     N        0.50187    0.37491    0.25444    1.000
    C693     C        0.47357    0.37613    0.26503    1.000
    H381     H        0.45517    0.36773    0.24243    1.000
    C694     C        0.46904    0.38920    0.30699    1.000
    H382     H        0.44797    0.38973    0.31233    1.000
    C695     C        0.49376    0.40106    0.34017    1.000
    C696     C        0.52447    0.40133    0.32963    1.000
    H383     H        0.54337    0.41053    0.35143    1.000
    C697     C        0.52717    0.38753    0.28583    1.000
    H384     H        0.54817    0.38743    0.27873    1.000
    C698     C        0.43223    0.45149    0.48388    1.000
    N283     N        0.45561    0.46046    0.51976    1.000
    C699     C        0.48225    0.45435    0.51184    1.000
    N284     N        0.50663    0.46210    0.54597    1.000
    C700     C        0.53147    0.45448    0.53480    1.000
    N285     N        0.53663    0.44096    0.49499    1.000
    C701     C        0.51250    0.43399    0.46085    1.000
    N286     N        0.51509    0.42074    0.41837    1.000
    C702     C        0.49026    0.41484    0.38698    1.000
    N287     N        0.46209    0.41960    0.39074    1.000
    C703     C        0.45928    0.43280    0.43354    1.000
    N288     N        0.43239    0.43817    0.44121    1.000
    C704     C        0.48479    0.44041    0.46824    1.000
    Zn33     Zn       0.97890    0.81939    0.85977    1.000
    I33      I        0.00531    0.88459    0.85881    1.000
    N289     N        0.01588    0.80549    0.84557    1.000
    C705     C        0.04636    0.82088    0.87064    1.000
    H385     H        0.04913    0.83717    0.89467    1.000
    C706     C        0.07287    0.81429    0.86322    1.000
    H386     H        0.09353    0.82517    0.88207    1.000
    C707     C        0.06905    0.79110    0.82711    1.000
    C708     C        0.03821    0.77467    0.80223    1.000
    H387     H        0.03493    0.75847    0.77787    1.000
    C709     C        0.01175    0.78221    0.81325    1.000
    H388     H        0.99003    0.77007    0.79687    1.000
    N290     N        0.27567    0.81363    0.97599    1.000
    C710     C        0.27845    0.80099    0.93374    1.000
    H389     H        0.29793    0.79767    0.92847    1.000
    C711     C        0.25455    0.79259    0.89813    1.000
    H390     H        0.25763    0.78407    0.86867    1.000
    C712     C        0.22566    0.79676    0.90563    1.000
    C713     C        0.22355    0.81157    0.94835    1.000
    H391     H        0.20493    0.81617    0.95387    1.000
    C714     C        0.24840    0.81922    0.98192    1.000
    H392     H        0.24653    0.82897    0.01097    1.000
    N291     N        0.16853    0.70825    0.58778    1.000
    C715     C        0.14023    0.70947    0.59837    1.000
    H393     H        0.12183    0.70107    0.57577    1.000
    C716     C        0.13570    0.72254    0.64033    1.000
    H394     H        0.11463    0.72307    0.64567    1.000
    C717     C        0.16042    0.73440    0.67351    1.000
    C718     C        0.19113    0.73467    0.66297    1.000
    H395     H        0.21003    0.74387    0.68477    1.000
    C719     C        0.19383    0.72087    0.61917    1.000
    H396     H        0.21483    0.72077    0.61207    1.000
    C720     C        0.09889    0.78483    0.81722    1.000
    N292     N        0.12227    0.79380    0.85310    1.000
    C721     C        0.14891    0.78769    0.84518    1.000
    N293     N        0.17329    0.79544    0.87931    1.000
    C722     C        0.19813    0.78782    0.86814    1.000
    N294     N        0.20329    0.77430    0.82833    1.000
    C723     C        0.17916    0.76733    0.79419    1.000
    N295     N        0.18175    0.75408    0.75171    1.000
    C724     C        0.15692    0.74818    0.72032    1.000
    N296     N        0.12875    0.75294    0.72408    1.000
    C725     C        0.12594    0.76614    0.76688    1.000
    N297     N        0.09905    0.77151    0.77455    1.000
    C726     C        0.15145    0.77375    0.80158    1.000
    Zn34     Zn       0.84727    0.49284    0.19310    1.000
    I34      I        0.78207    0.45405    0.19214    1.000
    N298     N        0.86118    0.54373    0.17890    1.000
    C727     C        0.84579    0.55882    0.20397    1.000
    H397     H        0.82950    0.54530    0.22800    1.000
    C728     C        0.85238    0.59192    0.19655    1.000
    H398     H        0.84150    0.60170    0.21540    1.000
    C729     C        0.87557    0.61129    0.16044    1.000
    C730     C        0.89200    0.59688    0.13556    1.000
    H399     H        0.90820    0.60980    0.11120    1.000
    C731     C        0.88446    0.56288    0.14658    1.000
    H400     H        0.89660    0.55330    0.13020    1.000
    N299     N        0.85304    0.79538    0.30932    1.000
    C732     C        0.86568    0.81080    0.26707    1.000
    H401     H        0.86900    0.83360    0.26180    1.000
    C733     C        0.87408    0.79530    0.23146    1.000
    H402     H        0.88260    0.80690    0.20200    1.000
    C734     C        0.86991    0.76224    0.23896    1.000
    C735     C        0.85510    0.74532    0.28168    1.000
    H403     H        0.85050    0.72210    0.28720    1.000
    C736     C        0.84745    0.76252    0.31525    1.000
    H404     H        0.83770    0.75090    0.34430    1.000
    N300     N        0.95842    0.79362    0.92111    1.000
    C737     C        0.95720    0.76410    0.93170    1.000
    H405     H        0.96560    0.75410    0.90910    1.000
    C738     C        0.94413    0.74650    0.97366    1.000
    H406     H        0.94360    0.72490    0.97900    1.000
    C739     C        0.93227    0.75936    0.00684    1.000
    C740     C        0.93200    0.78980    0.99630    1.000
    H407     H        0.92280    0.79950    0.01810    1.000
    C741     C        0.94580    0.80630    0.95250    1.000
    H408     H        0.94590    0.82740    0.94540    1.000
    C742     C        0.88184    0.64740    0.15055    1.000
    N301     N        0.87287    0.66181    0.18643    1.000
    C743     C        0.87898    0.69456    0.17851    1.000
    N302     N        0.87123    0.71119    0.21264    1.000
    C744     C        0.87885    0.74365    0.20147    1.000
    N303     N        0.89237    0.76233    0.16166    1.000
    C745     C        0.89934    0.74517    0.12752    1.000
    N304     N        0.91259    0.76101    0.08504    1.000
    C746     C        0.91849    0.74208    0.05365    1.000
    N305     N        0.91373    0.70915    0.05741    1.000
    C747     C        0.90053    0.69314    0.10021    1.000
    N306     N        0.89516    0.66088    0.10788    1.000
    C748     C        0.89292    0.71104    0.13491    1.000
    Zn35     Zn       0.51394    0.82617    0.52643    1.000
    I35      I        0.44874    0.78738    0.52547    1.000
    N307     N        0.52785    0.87706    0.51223    1.000
    C749     C        0.51246    0.89215    0.53730    1.000
    H409     H        0.49617    0.87863    0.56133    1.000
    C750     C        0.51905    0.92525    0.52988    1.000
    H410     H        0.50817    0.93503    0.54873    1.000
    C751     C        0.54224    0.94462    0.49377    1.000
    C752     C        0.55867    0.93021    0.46889    1.000
    H411     H        0.57487    0.94313    0.44453    1.000
    C753     C        0.55113    0.89621    0.47991    1.000
    H412     H        0.56327    0.88663    0.46353    1.000
    N308     N        0.51971    0.12871    0.64265    1.000
    C754     C        0.53235    0.14413    0.60040    1.000
    H413     H        0.53567    0.16693    0.59513    1.000
    C755     C        0.54075    0.12863    0.56479    1.000
    H414     H        0.54927    0.14023    0.53533    1.000
    C756     C        0.53658    0.09557    0.57229    1.000
    C757     C        0.52177    0.07865    0.61501    1.000
    H415     H        0.51717    0.05543    0.62053    1.000
    C758     C        0.51412    0.09585    0.64858    1.000
    H416     H        0.50437    0.08423    0.67763    1.000
    N309     N        0.62509    0.12695    0.25444    1.000
    C759     C        0.62387    0.09743    0.26503    1.000
    H417     H        0.63227    0.08743    0.24243    1.000
    C760     C        0.61080    0.07983    0.30699    1.000
    H418     H        0.61027    0.05823    0.31233    1.000
    C761     C        0.59894    0.09269    0.34017    1.000
    C762     C        0.59867    0.12313    0.32963    1.000
    H419     H        0.58947    0.13283    0.35143    1.000
    C763     C        0.61247    0.13963    0.28583    1.000
    H420     H        0.61257    0.16073    0.27873    1.000
    C764     C        0.54851    0.98073    0.48388    1.000
    N310     N        0.53954    0.99514    0.51976    1.000
    C765     C        0.54565    0.02789    0.51184    1.000
    N311     N        0.53790    0.04452    0.54597    1.000
    C766     C        0.54552    0.07698    0.53480    1.000
    N312     N        0.55904    0.09566    0.49499    1.000
    C767     C        0.56601    0.07850    0.46085    1.000
    N313     N        0.57926    0.09434    0.41837    1.000
    C768     C        0.58516    0.07541    0.38698    1.000
    N314     N        0.58040    0.04248    0.39074    1.000
    C769     C        0.56720    0.02647    0.43354    1.000
    N315     N        0.56183    0.99421    0.44121    1.000
    C770     C        0.55959    0.04437    0.46824    1.000
    Zn36     Zn       0.18061    0.15950    0.85977    1.000
    I36      I        0.11541    0.12071    0.85881    1.000
    N316     N        0.19451    0.21040    0.84557    1.000
    C771     C        0.17912    0.22549    0.87064    1.000
    H421     H        0.16283    0.21197    0.89467    1.000
    C772     C        0.18571    0.25859    0.86322    1.000
    H422     H        0.17483    0.26837    0.88207    1.000
    C773     C        0.20890    0.27796    0.82711    1.000
    C774     C        0.22533    0.26355    0.80223    1.000
    H423     H        0.24153    0.27647    0.77787    1.000
    C775     C        0.21779    0.22955    0.81325    1.000
    H424     H        0.22993    0.21997    0.79687    1.000
    N317     N        0.18637    0.46205    0.97599    1.000
    C776     C        0.19901    0.47747    0.93374    1.000
    H425     H        0.20233    0.50027    0.92847    1.000
    C777     C        0.20741    0.46197    0.89813    1.000
    H426     H        0.21593    0.47357    0.86867    1.000
    C778     C        0.20324    0.42891    0.90563    1.000
    C779     C        0.18843    0.41199    0.94835    1.000
    H427     H        0.18383    0.38877    0.95387    1.000
    C780     C        0.18078    0.42919    0.98192    1.000
    H428     H        0.17103    0.41757    0.01097    1.000
    N318     N        0.29175    0.46029    0.58778    1.000
    C781     C        0.29053    0.43077    0.59837    1.000
    H429     H        0.29893    0.42077    0.57577    1.000
    C782     C        0.27746    0.41317    0.64033    1.000
    H430     H        0.27693    0.39157    0.64567    1.000
    C783     C        0.26560    0.42603    0.67351    1.000
    C784     C        0.26533    0.45647    0.66297    1.000
    H431     H        0.25613    0.46617    0.68477    1.000
    C785     C        0.27913    0.47297    0.61917    1.000
    H432     H        0.27923    0.49407    0.61207    1.000
    C786     C        0.21517    0.31407    0.81722    1.000
    N319     N        0.20620    0.32848    0.85310    1.000
    C787     C        0.21231    0.36123    0.84518    1.000
    N320     N        0.20456    0.37786    0.87931    1.000
    C788     C        0.21218    0.41032    0.86814    1.000
    N321     N        0.22570    0.42900    0.82833    1.000
    C789     C        0.23267    0.41184    0.79419    1.000
    N322     N        0.24592    0.42768    0.75171    1.000
    C790     C        0.25182    0.40875    0.72032    1.000
    N323     N        0.24706    0.37582    0.72408    1.000
    C791     C        0.23386    0.35981    0.76688    1.000
    N324     N        0.22849    0.32755    0.77455    1.000
    C792     C        0.22625    0.37771    0.80158    1.000
