# CIF file generated by openbabel 3.1.0, see https://openbabel.org
data_I
_chemical_name_common 'image0'
_cell_length_a 11.2219
_cell_length_b 13.2435
_cell_length_c 17.6351
_cell_angle_alpha 82.365
_cell_angle_beta 72.787
_cell_angle_gamma 68.608
_space_group_name_H-M_alt 'P 1'
_space_group_name_Hall 'P 1'
loop_
    _symmetry_equiv_pos_as_xyz
    x,y,z
loop_
    _atom_site_label
    _atom_site_type_symbol
    _atom_site_fract_x
    _atom_site_fract_y
    _atom_site_fract_z
    _atom_site_occupancy
    La1      La       0.04367    0.12706    0.36521    1.000
    La2      La       0.39330    0.67765    0.01042    1.000
    Mo1      Mo       0.34530    0.27567    0.62344    1.000
    Mo2      Mo       0.82546    0.79801    0.25516    1.000
    Mo3      Mo       0.81114    0.59592    0.24847    1.000
    S1       S        0.11218    0.35051    0.65908    1.000
    S2       S        0.39411    0.11155    0.68994    1.000
    S3       S        0.41256    0.36252    0.69790    1.000
    S4       S        0.79660    0.73039    0.15095    1.000
    O1       O        0.33540    0.20030    0.52580    1.000
    O2       O        0.34280    0.39727    0.53135    1.000
    O3       O        0.44990    0.11940    0.41069    1.000
    O4       O        0.46120    0.44770    0.41732    1.000
    O5       O        0.84380    0.17170    0.47788    1.000
    O6       O        0.88700    0.05930    0.57910    1.000
    N1       N        0.56240    0.21960    0.54662    1.000
    C1       C        0.57390    0.13600    0.49306    1.000
    H1       H        0.64270    0.13740    0.44290    1.000
    H2       H        0.60330    0.06340    0.51870    1.000
    C2       C        0.44440    0.15370    0.47398    1.000
    C3       C        0.58020    0.31750    0.49872    1.000
    H3       H        0.61040    0.35740    0.52850    1.000
    H4       H        0.65020    0.29410    0.44850    1.000
    C4       C        0.45340    0.39280    0.47966    1.000
    C5       C        0.66370    0.17170    0.59282    1.000
    H5       H        0.65270    0.22720    0.62920    1.000
    H6       H        0.64380    0.11050    0.62610    1.000
    C6       C        0.80970    0.13060    0.54467    1.000
    O7       O        0.03260    0.75889    0.19150    1.000
    O8       O        0.88940    0.87829    0.32276    1.000
    O9       O        0.17760    0.80130    0.08773    1.000
    O10      O        0.88850    0.03460    0.35440    1.000
    O11      O        0.80980    0.14990    0.08570    1.000
    O12      O        0.62710    0.15170    0.06520    1.000
    N2       N        0.83310    0.95550    0.18174    1.000
    C7       C        0.96280    0.92900    0.12150    1.000
    H7       H        0.99910    0.98730    0.12000    1.000
    H8       H        0.94780    0.92930    0.06880    1.000
    C8       C        0.06550    0.82220    0.13397    1.000
    C9       C        0.82000    0.03390    0.23960    1.000
    H9       H        0.72510    0.07880    0.25900    1.000
    H10      H        0.86920    0.08290    0.21210    1.000
    C10      C        0.87160    0.97920    0.30960    1.000
    C11      C        0.72560    0.00470    0.14140    1.000
    H11      H        0.63950    0.01860    0.18220    1.000
    H12      H        0.73230    0.95070    0.10520    1.000
    C12      C        0.72280    0.11050    0.09340    1.000
    O13      O        0.85150    0.44112    0.30773    1.000
    O14      O        0.01500    0.51643    0.19042    1.000
    O15      O        0.85390    0.27115    0.31290    1.000
    O16      O        0.15760    0.43770    0.08019    1.000
    O17      O        0.58750    0.51510    0.03062    1.000
    O18      O        0.76260    0.37699    0.04636    1.000
    N3       N        0.80200    0.48490    0.16178    1.000
    C13      C        0.77860    0.38870    0.20970    1.000
    H13      H        0.82030    0.32480    0.17540    1.000
    H14      H        0.68190    0.40230    0.22770    1.000
    C14      C        0.83350    0.36290    0.28152    1.000
    C15      C        0.93310    0.45390    0.10050    1.000
    H15      H        0.92230    0.49810    0.05150    1.000
    H16      H        0.95950    0.37690    0.08760    1.000
    C16      C        0.04430    0.46840    0.12525    1.000
    C17      C        0.69360    0.53850    0.12169    1.000
    H17      H        0.70600    0.60560    0.09410    1.000
    H18      H        0.60770    0.56040    0.16300    1.000
    C18      C        0.68420    0.47090    0.06206    1.000
    O19      O        0.00190    0.32720    0.40080    1.000
    O20      O        0.93090    0.70350    0.61200    1.000
    La3      La       0.95633    0.87294    0.63479    1.000
    La4      La       0.60670    0.32235    0.98958    1.000
    Mo4      Mo       0.65470    0.72433    0.37656    1.000
    Mo5      Mo       0.17454    0.20199    0.74484    1.000
    Mo6      Mo       0.18886    0.40408    0.75153    1.000
    S5       S        0.88782    0.64949    0.34092    1.000
    S6       S        0.60589    0.88845    0.31006    1.000
    S7       S        0.58744    0.63748    0.30210    1.000
    S8       S        0.20340    0.26961    0.84905    1.000
    O21      O        0.66460    0.79970    0.47420    1.000
    O22      O        0.65720    0.60273    0.46865    1.000
    O23      O        0.55010    0.88060    0.58931    1.000
    O24      O        0.53880    0.55230    0.58268    1.000
    O25      O        0.15620    0.82830    0.52212    1.000
    O26      O        0.11300    0.94070    0.42090    1.000
    N4       N        0.43760    0.78040    0.45338    1.000
    C19      C        0.42610    0.86400    0.50694    1.000
    H19      H        0.35730    0.86260    0.55710    1.000
    H20      H        0.39670    0.93660    0.48130    1.000
    C20      C        0.55560    0.84630    0.52602    1.000
    C21      C        0.41980    0.68250    0.50128    1.000
    H21      H        0.38960    0.64260    0.47150    1.000
    H22      H        0.34980    0.70590    0.55150    1.000
    C22      C        0.54660    0.60720    0.52034    1.000
    C23      C        0.33630    0.82830    0.40718    1.000
    H23      H        0.34730    0.77280    0.37080    1.000
    H24      H        0.35620    0.88950    0.37390    1.000
    C24      C        0.19030    0.86940    0.45533    1.000
    O27      O        0.96740    0.24111    0.80850    1.000
    O28      O        0.11060    0.12171    0.67724    1.000
    O29      O        0.82240    0.19870    0.91227    1.000
    O30      O        0.11150    0.96540    0.64560    1.000
    O31      O        0.19020    0.85010    0.91430    1.000
    O32      O        0.37290    0.84830    0.93480    1.000
    N5       N        0.16690    0.04450    0.81826    1.000
    C25      C        0.03720    0.07100    0.87850    1.000
    H25      H        0.00090    0.01270    0.88000    1.000
    H26      H        0.05220    0.07070    0.93120    1.000
    C26      C        0.93450    0.17780    0.86603    1.000
    C27      C        0.18000    0.96610    0.76040    1.000
    H27      H        0.27490    0.92120    0.74100    1.000
    H28      H        0.13080    0.91710    0.78790    1.000
    C28      C        0.12840    0.02080    0.69040    1.000
    C29      C        0.27440    0.99530    0.85860    1.000
    H29      H        0.36050    0.98140    0.81780    1.000
    H30      H        0.26770    0.04930    0.89480    1.000
    C30      C        0.27720    0.88950    0.90660    1.000
    O33      O        0.14850    0.55888    0.69227    1.000
    O34      O        0.98500    0.48357    0.80958    1.000
    O35      O        0.14610    0.72885    0.68710    1.000
    O36      O        0.84240    0.56230    0.91981    1.000
    O37      O        0.41250    0.48490    0.96938    1.000
    O38      O        0.23740    0.62301    0.95364    1.000
    N6       N        0.19800    0.51510    0.83822    1.000
    C31      C        0.22140    0.61130    0.79030    1.000
    H31      H        0.17970    0.67520    0.82460    1.000
    H32      H        0.31810    0.59770    0.77230    1.000
    C32      C        0.16650    0.63710    0.71848    1.000
    C33      C        0.06690    0.54610    0.89950    1.000
    H33      H        0.07770    0.50190    0.94850    1.000
    H34      H        0.04050    0.62310    0.91240    1.000
    C34      C        0.95570    0.53160    0.87475    1.000
    C35      C        0.30640    0.46150    0.87831    1.000
    H35      H        0.29400    0.39440    0.90590    1.000
    H36      H        0.39230    0.43960    0.83700    1.000
    C36      C        0.31580    0.52910    0.93794    1.000
    O39      O        0.99810    0.67280    0.59920    1.000
    O40      O        0.06910    0.29650    0.38800    1.000
