# CIF file generated by openbabel 3.1.0, see https://openbabel.org
data_I
_chemical_name_common 'image0'
_cell_length_a 7.903
_cell_length_b 9.355
_cell_length_c 7.485
_cell_angle_alpha 90
_cell_angle_beta 118.25
_cell_angle_gamma 90
_space_group_name_H-M_alt 'P 1'
_space_group_name_Hall 'P 1'
loop_
    _symmetry_equiv_pos_as_xyz
    x,y,z
loop_
    _atom_site_label
    _atom_site_type_symbol
    _atom_site_fract_x
    _atom_site_fract_y
    _atom_site_fract_z
    _atom_site_occupancy
    P1       P        0.19180    0.48400    0.36830    1.000
    O1       O        0.18570    0.38850    0.18880    1.000
    O2       O        0.06550    0.61140    0.29490    1.000
    O3       O        0.14200    0.40720    0.50860    1.000
    C1       C        0.42830    0.57190    0.46050    1.000
    P2       P        0.80820    0.98400    0.63170    1.000
    O4       O        0.81430    0.88850    0.81120    1.000
    O5       O        0.93450    0.11140    0.70510    1.000
    O6       O        0.85800    0.90720    0.49140    1.000
    C2       C        0.57170    0.07190    0.53950    1.000
    P3       P        0.80820    0.51600    0.63170    1.000
    O7       O        0.81430    0.61150    0.81120    1.000
    O8       O        0.93450    0.38860    0.70510    1.000
    O9       O        0.85800    0.59280    0.49140    1.000
    C3       C        0.57170    0.42810    0.53950    1.000
    P4       P        0.19180    0.01600    0.36830    1.000
    O10      O        0.18570    0.11150    0.18880    1.000
    O11      O        0.06550    0.88860    0.29490    1.000
    O12      O        0.14200    0.09280    0.50860    1.000
    C4       C        0.42830    0.92810    0.46050    1.000
    V1       V        0.96180    0.75000    0.43400    1.000
    O13      O        0.72850    0.75000    0.10410    1.000
    V2       V        0.03820    0.25000    0.56600    1.000
    O14      O        0.27150    0.25000    0.89590    1.000
    V3       V        0.00510    0.25000    0.96080    1.000
    V4       V        0.99490    0.75000    0.03920    1.000
