# CIF file generated by openbabel 3.1.0, see https://openbabel.org
data_I
_chemical_name_common 'image0'
_cell_length_a 17.3358
_cell_length_b 11.6348
_cell_length_c 18.3198
_cell_angle_alpha 90
_cell_angle_beta 110.426
_cell_angle_gamma 90
_space_group_name_H-M_alt 'P 1'
_space_group_name_Hall 'P 1'
loop_
    _symmetry_equiv_pos_as_xyz
    x,y,z
loop_
    _atom_site_label
    _atom_site_type_symbol
    _atom_site_fract_x
    _atom_site_fract_y
    _atom_site_fract_z
    _atom_site_occupancy
    Dy1      Dy       0.99896    0.08325    0.09459    1.000
    Dy2      Dy       0.50238    0.56961    0.39904    1.000
    S1       S        0.24476    0.70743    0.11032    1.000
    S2       S        0.25028    0.20519    0.41012    1.000
    S3       S        0.26439    0.72660    0.55935    1.000
    O1       O        0.40533    0.58200    0.16394    1.000
    O2       O        0.10080    0.06630    0.35163    1.000
    O3       O        0.40477    0.53730    0.28222    1.000
    O4       O        0.07788    0.09050    0.22507    1.000
    O5       O        0.07997    0.94650    0.49354    1.000
    O6       O        0.40830    0.58640    0.55928    1.000
    O7       O        0.07160    0.91060    0.12457    1.000
    O8       O        0.42235    0.67160    0.45477    1.000
    O9       O        0.42380    0.43230    0.43359    1.000
    O10      O        0.08277    0.82180    0.01959    1.000
    C1       C        0.11610    0.11120    0.29520    1.000
    C2       C        0.37570    0.58710    0.21610    1.000
    O11      O        0.39578    0.31540    0.51594    1.000
    O12      O        0.11628    0.81790    0.58756    1.000
    C3       C        0.18610    0.19250    0.31440    1.000
    C4       C        0.29930    0.65390    0.20220    1.000
    C5       C        0.17450    0.77320    0.14440    1.000
    C6       C        0.20150    0.83900    0.51190    1.000
    C7       C        0.32360    0.74270    0.50170    1.000
    C8       C        0.26410    0.68590    0.25520    1.000
    H1       H        0.28450    0.66420    0.30740    1.000
    C9       C        0.10420    0.84070    0.09180    1.000
    C10      C        0.19340    0.75570    0.22240    1.000
    H2       H        0.16320    0.78630    0.25090    1.000
    C11      C        0.39040    0.66010    0.50610    1.000
    C12      C        0.30900    0.30670    0.38520    1.000
    C13      C        0.38010    0.35480    0.44790    1.000
    C14      C        0.12870    0.86900    0.53200    1.000
    C15      C        0.22670    0.88690    0.45540    1.000
    H3       H        0.20050    0.94840    0.42420    1.000
    C16      C        0.20960    0.26370    0.26670    1.000
    H4       H        0.18220    0.26840    0.21320    1.000
    C17      C        0.27990    0.32940    0.30710    1.000
    H5       H        0.30370    0.38230    0.28330    1.000
    C18      C        0.29670    0.83200    0.45030    1.000
    H6       H        0.32220    0.85390    0.41550    1.000
    Dy3      Dy       0.00104    0.08325    0.40541    1.000
    Dy4      Dy       0.49762    0.56961    0.10096    1.000
    S4       S        0.75524    0.70743    0.38968    1.000
    S5       S        0.74972    0.20519    0.08988    1.000
    S6       S        0.73561    0.72660    0.94065    1.000
    O13      O        0.59467    0.58200    0.33606    1.000
    O14      O        0.89920    0.06630    0.14837    1.000
    O15      O        0.59523    0.53730    0.21778    1.000
    O16      O        0.92212    0.09050    0.27493    1.000
    O17      O        0.92003    0.94650    0.00646    1.000
    O18      O        0.59170    0.58640    0.94072    1.000
    O19      O        0.92840    0.91060    0.37543    1.000
    O20      O        0.57765    0.67160    0.04523    1.000
    O21      O        0.57620    0.43230    0.06641    1.000
    O22      O        0.91723    0.82180    0.48041    1.000
    C19      C        0.88390    0.11120    0.20480    1.000
    C20      C        0.62430    0.58710    0.28390    1.000
    O23      O        0.60422    0.31540    0.98406    1.000
    O24      O        0.88372    0.81790    0.91244    1.000
    C21      C        0.81390    0.19250    0.18560    1.000
    C22      C        0.70070    0.65390    0.29780    1.000
    C23      C        0.82550    0.77320    0.35560    1.000
    C24      C        0.79850    0.83900    0.98810    1.000
    C25      C        0.67640    0.74270    0.99830    1.000
    C26      C        0.73590    0.68590    0.24480    1.000
    H7       H        0.71550    0.66420    0.19260    1.000
    C27      C        0.89580    0.84070    0.40820    1.000
    C28      C        0.80660    0.75570    0.27760    1.000
    H8       H        0.83680    0.78630    0.24910    1.000
    C29      C        0.60960    0.66010    0.99390    1.000
    C30      C        0.69100    0.30670    0.11480    1.000
    C31      C        0.61990    0.35480    0.05210    1.000
    C32      C        0.87130    0.86900    0.96800    1.000
    C33      C        0.77330    0.88690    0.04460    1.000
    H9       H        0.79950    0.94840    0.07580    1.000
    C34      C        0.79040    0.26370    0.23330    1.000
    H10      H        0.81780    0.26840    0.28680    1.000
    C35      C        0.72010    0.32940    0.19290    1.000
    H11      H        0.69630    0.38230    0.21670    1.000
    C36      C        0.70330    0.83200    0.04970    1.000
    H12      H        0.67780    0.85390    0.08450    1.000
    Dy5      Dy       0.00104    0.91675    0.90541    1.000
    Dy6      Dy       0.49762    0.43039    0.60096    1.000
    S7       S        0.75524    0.29257    0.88968    1.000
    S8       S        0.74972    0.79481    0.58988    1.000
    S9       S        0.73561    0.27340    0.44065    1.000
    O25      O        0.59467    0.41800    0.83606    1.000
    O26      O        0.89920    0.93370    0.64837    1.000
    O27      O        0.59523    0.46270    0.71778    1.000
    O28      O        0.92212    0.90950    0.77493    1.000
    O29      O        0.92003    0.05350    0.50646    1.000
    O30      O        0.59170    0.41360    0.44072    1.000
    O31      O        0.92840    0.08940    0.87543    1.000
    O32      O        0.57765    0.32840    0.54523    1.000
    O33      O        0.57620    0.56770    0.56641    1.000
    O34      O        0.91723    0.17820    0.98041    1.000
    C37      C        0.88390    0.88880    0.70480    1.000
    C38      C        0.62430    0.41290    0.78390    1.000
    O35      O        0.60422    0.68460    0.48406    1.000
    O36      O        0.88372    0.18210    0.41244    1.000
    C39      C        0.81390    0.80750    0.68560    1.000
    C40      C        0.70070    0.34610    0.79780    1.000
    C41      C        0.82550    0.22680    0.85560    1.000
    C42      C        0.79850    0.16100    0.48810    1.000
    C43      C        0.67640    0.25730    0.49830    1.000
    C44      C        0.73590    0.31410    0.74480    1.000
    H13      H        0.71550    0.33580    0.69260    1.000
    C45      C        0.89580    0.15930    0.90820    1.000
    C46      C        0.80660    0.24430    0.77760    1.000
    H14      H        0.83680    0.21370    0.74910    1.000
    C47      C        0.60960    0.33990    0.49390    1.000
    C48      C        0.69100    0.69330    0.61480    1.000
    C49      C        0.61990    0.64520    0.55210    1.000
    C50      C        0.87130    0.13100    0.46800    1.000
    C51      C        0.77330    0.11310    0.54460    1.000
    H15      H        0.79950    0.05160    0.57580    1.000
    C52      C        0.79040    0.73630    0.73330    1.000
    H16      H        0.81780    0.73160    0.78680    1.000
    C53      C        0.72010    0.67060    0.69290    1.000
    H17      H        0.69630    0.61770    0.71670    1.000
    C54      C        0.70330    0.16800    0.54970    1.000
    H18      H        0.67780    0.14610    0.58450    1.000
    Dy7      Dy       0.99896    0.91675    0.59459    1.000
    Dy8      Dy       0.50238    0.43039    0.89904    1.000
    S10      S        0.24476    0.29257    0.61032    1.000
    S11      S        0.25028    0.79481    0.91012    1.000
    S12      S        0.26439    0.27340    0.05935    1.000
    O37      O        0.40533    0.41800    0.66394    1.000
    O38      O        0.10080    0.93370    0.85163    1.000
    O39      O        0.40477    0.46270    0.78222    1.000
    O40      O        0.07788    0.90950    0.72507    1.000
    O41      O        0.07997    0.05350    0.99354    1.000
    O42      O        0.40830    0.41360    0.05928    1.000
    O43      O        0.07160    0.08940    0.62457    1.000
    O44      O        0.42235    0.32840    0.95477    1.000
    O45      O        0.42380    0.56770    0.93359    1.000
    O46      O        0.08277    0.17820    0.51959    1.000
    C55      C        0.11610    0.88880    0.79520    1.000
    C56      C        0.37570    0.41290    0.71610    1.000
    O47      O        0.39578    0.68460    0.01594    1.000
    O48      O        0.11628    0.18210    0.08756    1.000
    C57      C        0.18610    0.80750    0.81440    1.000
    C58      C        0.29930    0.34610    0.70220    1.000
    C59      C        0.17450    0.22680    0.64440    1.000
    C60      C        0.20150    0.16100    0.01190    1.000
    C61      C        0.32360    0.25730    0.00170    1.000
    C62      C        0.26410    0.31410    0.75520    1.000
    H19      H        0.28450    0.33580    0.80740    1.000
    C63      C        0.10420    0.15930    0.59180    1.000
    C64      C        0.19340    0.24430    0.72240    1.000
    H20      H        0.16320    0.21370    0.75090    1.000
    C65      C        0.39040    0.33990    0.00610    1.000
    C66      C        0.30900    0.69330    0.88520    1.000
    C67      C        0.38010    0.64520    0.94790    1.000
    C68      C        0.12870    0.13100    0.03200    1.000
    C69      C        0.22670    0.11310    0.95540    1.000
    H21      H        0.20050    0.05160    0.92420    1.000
    C70      C        0.20960    0.73630    0.76670    1.000
    H22      H        0.18220    0.73160    0.71320    1.000
    C71      C        0.27990    0.67060    0.80710    1.000
    H23      H        0.30370    0.61770    0.78330    1.000
    C72      C        0.29670    0.16800    0.95030    1.000
    H24      H        0.32220    0.14610    0.91550    1.000
