# CIF file generated by openbabel 3.1.0, see https://openbabel.org
data_I
_chemical_name_common 'image0'
_cell_length_a 14.0821
_cell_length_b 15.2498
_cell_length_c 18.6058
_cell_angle_alpha 90
_cell_angle_beta 106.747
_cell_angle_gamma 90
_space_group_name_H-M_alt 'P 1'
_space_group_name_Hall 'P 1'
loop_
    _symmetry_equiv_pos_as_xyz
    x,y,z
loop_
    _atom_site_label
    _atom_site_type_symbol
    _atom_site_fract_x
    _atom_site_fract_y
    _atom_site_fract_z
    _atom_site_occupancy
    Ni1      Ni       0.36665    0.61992    0.21659    1.000
    O1       O        0.32640    0.55400    0.11356    1.000
    O2       O        0.43510    0.71110    0.16466    1.000
    C1       C        0.38320    0.51230    0.08490    1.000
    C2       C        0.51070    0.70310    0.14270    1.000
    O3       O        0.46420    0.47770    0.12080    1.000
    N1       N        0.28800    0.47390    0.76240    1.000
    C3       C        0.17850    0.58740    0.82490    1.000
    H1       H        0.14080    0.62630    0.84580    1.000
    C4       C        0.25270    0.53600    0.87120    1.000
    C5       C        0.27890    0.53990    0.95400    1.000
    H2       H        0.23530    0.57200    0.97480    1.000
    C6       C        0.30520    0.48050    0.83670    1.000
    H3       H        0.35620    0.44530    0.86790    1.000
    C7       C        0.35590    0.50380    0.00140    1.000
    H4       H        0.39810    0.46920    0.98110    1.000
    C8       C        0.16030    0.58120    0.74800    1.000
    H5       H        0.11030    0.61620    0.71540    1.000
    C9       C        0.21530    0.52370    0.71900    1.000
    H6       H        0.20100    0.51920    0.66610    1.000
    O4       O        0.59730    0.68240    0.18221    1.000
    N2       N        0.26310    0.80670    0.82260    1.000
    C10      C        0.38400    0.74740    0.93120    1.000
    C11      C        0.30030    0.79510    0.89690    1.000
    H7       H        0.26610    0.82190    0.92840    1.000
    C12      C        0.41280    0.73980    0.01350    1.000
    H8       H        0.36290    0.75470    0.03650    1.000
    C13      C        0.49910    0.71490    0.06020    1.000
    H9       H        0.55400    0.70450    0.04140    1.000
    C14      C        0.31000    0.76740    0.77910    1.000
    H10      H        0.28540    0.77480    0.72620    1.000
    C15      C        0.39430    0.71570    0.80800    1.000
    H11      H        0.42550    0.68780    0.77510    1.000
    C16      C        0.43200    0.70540    0.88480    1.000
    H12      H        0.48930    0.67050    0.90550    1.000
    Ni2      Ni       0.86665    0.11992    0.21659    1.000
    O5       O        0.82640    0.05400    0.11356    1.000
    O6       O        0.93510    0.21110    0.16466    1.000
    C17      C        0.88320    0.01230    0.08490    1.000
    C18      C        0.01070    0.20310    0.14270    1.000
    O7       O        0.96420    0.97770    0.12080    1.000
    N3       N        0.78800    0.97390    0.76240    1.000
    C19      C        0.67850    0.08740    0.82490    1.000
    H13      H        0.64080    0.12630    0.84580    1.000
    C20      C        0.75270    0.03600    0.87120    1.000
    C21      C        0.77890    0.03990    0.95400    1.000
    H14      H        0.73530    0.07200    0.97480    1.000
    C22      C        0.80520    0.98050    0.83670    1.000
    H15      H        0.85620    0.94530    0.86790    1.000
    C23      C        0.85590    0.00380    0.00140    1.000
    H16      H        0.89810    0.96920    0.98110    1.000
    C24      C        0.66030    0.08120    0.74800    1.000
    H17      H        0.61030    0.11620    0.71540    1.000
    C25      C        0.71530    0.02370    0.71900    1.000
    H18      H        0.70100    0.01920    0.66610    1.000
    O8       O        0.09730    0.18240    0.18221    1.000
    N4       N        0.76310    0.30670    0.82260    1.000
    C26      C        0.88400    0.24740    0.93120    1.000
    C27      C        0.80030    0.29510    0.89690    1.000
    H19      H        0.76610    0.32190    0.92840    1.000
    C28      C        0.91280    0.23980    0.01350    1.000
    H20      H        0.86290    0.25470    0.03650    1.000
    C29      C        0.99910    0.21490    0.06020    1.000
    H21      H        0.05400    0.20450    0.04140    1.000
    C30      C        0.81000    0.26740    0.77910    1.000
    H22      H        0.78540    0.27480    0.72620    1.000
    C31      C        0.89430    0.21570    0.80800    1.000
    H23      H        0.92550    0.18780    0.77510    1.000
    C32      C        0.93200    0.20540    0.88480    1.000
    H24      H        0.98930    0.17050    0.90550    1.000
    Ni3      Ni       0.63335    0.61992    0.28341    1.000
    O9       O        0.67360    0.55400    0.38644    1.000
    O10      O        0.56490    0.71110    0.33534    1.000
    C33      C        0.61680    0.51230    0.41510    1.000
    C34      C        0.48930    0.70310    0.35730    1.000
    O11      O        0.53580    0.47770    0.37920    1.000
    N5       N        0.71200    0.47390    0.73760    1.000
    C35      C        0.82150    0.58740    0.67510    1.000
    H25      H        0.85920    0.62630    0.65420    1.000
    C36      C        0.74730    0.53600    0.62880    1.000
    C37      C        0.72110    0.53990    0.54600    1.000
    H26      H        0.76470    0.57200    0.52520    1.000
    C38      C        0.69480    0.48050    0.66330    1.000
    H27      H        0.64380    0.44530    0.63210    1.000
    C39      C        0.64410    0.50380    0.49860    1.000
    H28      H        0.60190    0.46920    0.51890    1.000
    C40      C        0.83970    0.58120    0.75200    1.000
    H29      H        0.88970    0.61620    0.78460    1.000
    C41      C        0.78470    0.52370    0.78100    1.000
    H30      H        0.79900    0.51920    0.83390    1.000
    O12      O        0.40270    0.68240    0.31779    1.000
    N6       N        0.73690    0.80670    0.67740    1.000
    C42      C        0.61600    0.74740    0.56880    1.000
    C43      C        0.69970    0.79510    0.60310    1.000
    H31      H        0.73390    0.82190    0.57160    1.000
    C44      C        0.58720    0.73980    0.48650    1.000
    H32      H        0.63710    0.75470    0.46350    1.000
    C45      C        0.50090    0.71490    0.43980    1.000
    H33      H        0.44600    0.70450    0.45860    1.000
    C46      C        0.69000    0.76740    0.72090    1.000
    H34      H        0.71460    0.77480    0.77380    1.000
    C47      C        0.60570    0.71570    0.69200    1.000
    H35      H        0.57450    0.68780    0.72490    1.000
    C48      C        0.56800    0.70540    0.61520    1.000
    H36      H        0.51070    0.67050    0.59450    1.000
    Ni4      Ni       0.13335    0.11992    0.28341    1.000
    O13      O        0.17360    0.05400    0.38644    1.000
    O14      O        0.06490    0.21110    0.33534    1.000
    C49      C        0.11680    0.01230    0.41510    1.000
    C50      C        0.98930    0.20310    0.35730    1.000
    O15      O        0.03580    0.97770    0.37920    1.000
    N7       N        0.21200    0.97390    0.73760    1.000
    C51      C        0.32150    0.08740    0.67510    1.000
    H37      H        0.35920    0.12630    0.65420    1.000
    C52      C        0.24730    0.03600    0.62880    1.000
    C53      C        0.22110    0.03990    0.54600    1.000
    H38      H        0.26470    0.07200    0.52520    1.000
    C54      C        0.19480    0.98050    0.66330    1.000
    H39      H        0.14380    0.94530    0.63210    1.000
    C55      C        0.14410    0.00380    0.49860    1.000
    H40      H        0.10190    0.96920    0.51890    1.000
    C56      C        0.33970    0.08120    0.75200    1.000
    H41      H        0.38970    0.11620    0.78460    1.000
    C57      C        0.28470    0.02370    0.78100    1.000
    H42      H        0.29900    0.01920    0.83390    1.000
    O16      O        0.90270    0.18240    0.31779    1.000
    N8       N        0.23690    0.30670    0.67740    1.000
    C58      C        0.11600    0.24740    0.56880    1.000
    C59      C        0.19970    0.29510    0.60310    1.000
    H43      H        0.23390    0.32190    0.57160    1.000
    C60      C        0.08720    0.23980    0.48650    1.000
    H44      H        0.13710    0.25470    0.46350    1.000
    C61      C        0.00090    0.21490    0.43980    1.000
    H45      H        0.94600    0.20450    0.45860    1.000
    C62      C        0.19000    0.26740    0.72090    1.000
    H46      H        0.21460    0.27480    0.77380    1.000
    C63      C        0.10570    0.21570    0.69200    1.000
    H47      H        0.07450    0.18780    0.72490    1.000
    C64      C        0.06800    0.20540    0.61520    1.000
    H48      H        0.01070    0.17050    0.59450    1.000
    Ni5      Ni       0.63335    0.38008    0.78341    1.000
    O17      O        0.67360    0.44600    0.88644    1.000
    O18      O        0.56490    0.28890    0.83534    1.000
    C65      C        0.61680    0.48770    0.91510    1.000
    C66      C        0.48930    0.29690    0.85730    1.000
    O19      O        0.53580    0.52230    0.87920    1.000
    N9       N        0.71200    0.52610    0.23760    1.000
    C67      C        0.82150    0.41260    0.17510    1.000
    H49      H        0.85920    0.37370    0.15420    1.000
    C68      C        0.74730    0.46400    0.12880    1.000
    C69      C        0.72110    0.46010    0.04600    1.000
    H50      H        0.76470    0.42800    0.02520    1.000
    C70      C        0.69480    0.51950    0.16330    1.000
    H51      H        0.64380    0.55470    0.13210    1.000
    C71      C        0.64410    0.49620    0.99860    1.000
    H52      H        0.60190    0.53080    0.01890    1.000
    C72      C        0.83970    0.41880    0.25200    1.000
    H53      H        0.88970    0.38380    0.28460    1.000
    C73      C        0.78470    0.47630    0.28100    1.000
    H54      H        0.79900    0.48080    0.33390    1.000
    O20      O        0.40270    0.31760    0.81779    1.000
    N10      N        0.73690    0.19330    0.17740    1.000
    C74      C        0.61600    0.25260    0.06880    1.000
    C75      C        0.69970    0.20490    0.10310    1.000
    H55      H        0.73390    0.17810    0.07160    1.000
    C76      C        0.58720    0.26020    0.98650    1.000
    H56      H        0.63710    0.24530    0.96350    1.000
    C77      C        0.50090    0.28510    0.93980    1.000
    H57      H        0.44600    0.29550    0.95860    1.000
    C78      C        0.69000    0.23260    0.22090    1.000
    H58      H        0.71460    0.22520    0.27380    1.000
    C79      C        0.60570    0.28430    0.19200    1.000
    H59      H        0.57450    0.31220    0.22490    1.000
    C80      C        0.56800    0.29460    0.11520    1.000
    H60      H        0.51070    0.32950    0.09450    1.000
    Ni6      Ni       0.13335    0.88008    0.78341    1.000
    O21      O        0.17360    0.94600    0.88644    1.000
    O22      O        0.06490    0.78890    0.83534    1.000
    C81      C        0.11680    0.98770    0.91510    1.000
    C82      C        0.98930    0.79690    0.85730    1.000
    O23      O        0.03580    0.02230    0.87920    1.000
    N11      N        0.21200    0.02610    0.23760    1.000
    C83      C        0.32150    0.91260    0.17510    1.000
    H61      H        0.35920    0.87370    0.15420    1.000
    C84      C        0.24730    0.96400    0.12880    1.000
    C85      C        0.22110    0.96010    0.04600    1.000
    H62      H        0.26470    0.92800    0.02520    1.000
    C86      C        0.19480    0.01950    0.16330    1.000
    H63      H        0.14380    0.05470    0.13210    1.000
    C87      C        0.14410    0.99620    0.99860    1.000
    H64      H        0.10190    0.03080    0.01890    1.000
    C88      C        0.33970    0.91880    0.25200    1.000
    H65      H        0.38970    0.88380    0.28460    1.000
    C89      C        0.28470    0.97630    0.28100    1.000
    H66      H        0.29900    0.98080    0.33390    1.000
    O24      O        0.90270    0.81760    0.81779    1.000
    N12      N        0.23690    0.69330    0.17740    1.000
    C90      C        0.11600    0.75260    0.06880    1.000
    C91      C        0.19970    0.70490    0.10310    1.000
    H67      H        0.23390    0.67810    0.07160    1.000
    C92      C        0.08720    0.76020    0.98650    1.000
    H68      H        0.13710    0.74530    0.96350    1.000
    C93      C        0.00090    0.78510    0.93980    1.000
    H69      H        0.94600    0.79550    0.95860    1.000
    C94      C        0.19000    0.73260    0.22090    1.000
    H70      H        0.21460    0.72520    0.27380    1.000
    C95      C        0.10570    0.78430    0.19200    1.000
    H71      H        0.07450    0.81220    0.22490    1.000
    C96      C        0.06800    0.79460    0.11520    1.000
    H72      H        0.01070    0.82950    0.09450    1.000
    Ni7      Ni       0.36665    0.38008    0.71659    1.000
    O25      O        0.32640    0.44600    0.61356    1.000
    O26      O        0.43510    0.28890    0.66466    1.000
    C97      C        0.38320    0.48770    0.58490    1.000
    C98      C        0.51070    0.29690    0.64270    1.000
    O27      O        0.46420    0.52230    0.62080    1.000
    N13      N        0.28800    0.52610    0.26240    1.000
    C99      C        0.17850    0.41260    0.32490    1.000
    H73      H        0.14080    0.37370    0.34580    1.000
    C100     C        0.25270    0.46400    0.37120    1.000
    C101     C        0.27890    0.46010    0.45400    1.000
    H74      H        0.23530    0.42800    0.47480    1.000
    C102     C        0.30520    0.51950    0.33670    1.000
    H75      H        0.35620    0.55470    0.36790    1.000
    C103     C        0.35590    0.49620    0.50140    1.000
    H76      H        0.39810    0.53080    0.48110    1.000
    C104     C        0.16030    0.41880    0.24800    1.000
    H77      H        0.11030    0.38380    0.21540    1.000
    C105     C        0.21530    0.47630    0.21900    1.000
    H78      H        0.20100    0.48080    0.16610    1.000
    O28      O        0.59730    0.31760    0.68221    1.000
    N14      N        0.26310    0.19330    0.32260    1.000
    C106     C        0.38400    0.25260    0.43120    1.000
    C107     C        0.30030    0.20490    0.39690    1.000
    H79      H        0.26610    0.17810    0.42840    1.000
    C108     C        0.41280    0.26020    0.51350    1.000
    H80      H        0.36290    0.24530    0.53650    1.000
    C109     C        0.49910    0.28510    0.56020    1.000
    H81      H        0.55400    0.29550    0.54140    1.000
    C110     C        0.31000    0.23260    0.27910    1.000
    H82      H        0.28540    0.22520    0.22620    1.000
    C111     C        0.39430    0.28430    0.30800    1.000
    H83      H        0.42550    0.31220    0.27510    1.000
    C112     C        0.43200    0.29460    0.38480    1.000
    H84      H        0.48930    0.32950    0.40550    1.000
    Ni8      Ni       0.86665    0.88008    0.71659    1.000
    O29      O        0.82640    0.94600    0.61356    1.000
    O30      O        0.93510    0.78890    0.66466    1.000
    C113     C        0.88320    0.98770    0.58490    1.000
    C114     C        0.01070    0.79690    0.64270    1.000
    O31      O        0.96420    0.02230    0.62080    1.000
    N15      N        0.78800    0.02610    0.26240    1.000
    C115     C        0.67850    0.91260    0.32490    1.000
    H85      H        0.64080    0.87370    0.34580    1.000
    C116     C        0.75270    0.96400    0.37120    1.000
    C117     C        0.77890    0.96010    0.45400    1.000
    H86      H        0.73530    0.92800    0.47480    1.000
    C118     C        0.80520    0.01950    0.33670    1.000
    H87      H        0.85620    0.05470    0.36790    1.000
    C119     C        0.85590    0.99620    0.50140    1.000
    H88      H        0.89810    0.03080    0.48110    1.000
    C120     C        0.66030    0.91880    0.24800    1.000
    H89      H        0.61030    0.88380    0.21540    1.000
    C121     C        0.71530    0.97630    0.21900    1.000
    H90      H        0.70100    0.98080    0.16610    1.000
    O32      O        0.09730    0.81760    0.68221    1.000
    N16      N        0.76310    0.69330    0.32260    1.000
    C122     C        0.88400    0.75260    0.43120    1.000
    C123     C        0.80030    0.70490    0.39690    1.000
    H91      H        0.76610    0.67810    0.42840    1.000
    C124     C        0.91280    0.76020    0.51350    1.000
    H92      H        0.86290    0.74530    0.53650    1.000
    C125     C        0.99910    0.78510    0.56020    1.000
    H93      H        0.05400    0.79550    0.54140    1.000
    C126     C        0.81000    0.73260    0.27910    1.000
    H94      H        0.78540    0.72520    0.22620    1.000
    C127     C        0.89430    0.78430    0.30800    1.000
    H95      H        0.92550    0.81220    0.27510    1.000
    C128     C        0.93200    0.79460    0.38480    1.000
    H96      H        0.98930    0.82950    0.40550    1.000
    O33      O        0.50000    0.54860    0.25000    1.000
    H97      H        0.50000    0.48630    0.25000    1.000
    O34      O        0.00000    0.04860    0.25000    1.000
    H98      H        0.00000    0.98630    0.25000    1.000
    O35      O        0.50000    0.45140    0.75000    1.000
    H99      H        0.50000    0.51370    0.75000    1.000
    O36      O        0.00000    0.95140    0.75000    1.000
    H100     H        0.00000    0.01370    0.75000    1.000
