# CIF file generated by openbabel 3.1.0, see https://openbabel.org
data_I
_chemical_name_common 'GAWMOI_clean'
_cell_length_a 6.0783
_cell_length_b 8.6457
_cell_length_c 16.1954
_cell_angle_alpha 77.801
_cell_angle_beta 88.351
_cell_angle_gamma 83.637
_space_group_name_H-M_alt 'P 1'
_space_group_name_Hall 'P 1'
loop_
    _symmetry_equiv_pos_as_xyz
    x,y,z
loop_
    _atom_site_label
    _atom_site_type_symbol
    _atom_site_fract_x
    _atom_site_fract_y
    _atom_site_fract_z
    _atom_site_occupancy
    Tb1      Tb       0.88010    0.10263    0.21809    1.000
    Tb2      Tb       0.11990    0.89737    0.78191    1.000
    H1       H        0.43160    0.48960    0.14250    1.000
    H2       H        0.27670    0.46650    0.01690    1.000
    H3       H        0.12740    0.75790    0.08410    1.000
    H4       H        0.81220    0.91150    0.00510    1.000
    H5       H        0.85670    0.01930    0.46190    1.000
    H6       H        0.54500    0.14500    0.51990    1.000
    H7       H        0.56840    0.51040    0.85750    1.000
    H8       H        0.72330    0.53350    0.98310    1.000
    H9       H        0.87260    0.24210    0.91590    1.000
    H10      H        0.18780    0.08850    0.99490    1.000
    H11      H        0.14330    0.98070    0.53810    1.000
    H12      H        0.45500    0.85500    0.48010    1.000
    C1       C        0.36870    0.25340    0.16550    1.000
    C2       C        0.48510    0.39640    0.11920    1.000
    C3       C        0.43540    0.43340    0.02480    1.000
    C4       C        0.85730    0.77030    0.16440    1.000
    C5       C        0.03400    0.84110    0.10530    1.000
    C6       C        0.91850    0.96180    0.03240    1.000
    C7       C        0.80020    0.24330    0.38770    1.000
    C8       C        0.73690    0.07660    0.42460    1.000
    C9       C        0.52490    0.08260    0.47730    1.000
    C10      C        0.63130    0.74660    0.83450    1.000
    C11      C        0.51490    0.60360    0.88080    1.000
    C12      C        0.56460    0.56660    0.97520    1.000
    C13      C        0.14270    0.22970    0.83560    1.000
    C14      C        0.96600    0.15890    0.89470    1.000
    C15      C        0.08150    0.03820    0.96760    1.000
    C16      C        0.19980    0.75670    0.61230    1.000
    C17      C        0.26310    0.92340    0.57540    1.000
    C18      C        0.47510    0.91740    0.52270    1.000
    O1       O        0.48970    0.13520    0.20480    1.000
    O2       O        0.16130    0.26630    0.16200    1.000
    O3       O        0.71680    0.36060    0.13400    1.000
    O4       O        0.49040    0.29170    0.99270    1.000
    O5       O        0.81010    0.83010    0.22800    1.000
    O6       O        0.76420    0.66050    0.14540    1.000
    O7       O        0.16460    0.92950    0.14640    1.000
    O8       O        0.80510    0.08140    0.07240    1.000
    O9       O        0.84780    0.27670    0.30960    1.000
    O10      O        0.80630    0.33400    0.43670    1.000
    O11      O        0.71720    0.99210    0.35840    1.000
    O12      O        0.34300    0.15830    0.42640    1.000
    O13      O        0.51030    0.86480    0.79520    1.000
    O14      O        0.83870    0.73370    0.83800    1.000
    O15      O        0.28320    0.63940    0.86600    1.000
    O16      O        0.50960    0.70830    0.00730    1.000
    O17      O        0.18990    0.16990    0.77200    1.000
    O18      O        0.23580    0.33950    0.85460    1.000
    O19      O        0.83540    0.07050    0.85360    1.000
    O20      O        0.19490    0.91860    0.92760    1.000
    O21      O        0.15220    0.72330    0.69040    1.000
    O22      O        0.19370    0.66600    0.56330    1.000
    O23      O        0.28280    0.00790    0.64160    1.000
    O24      O        0.65700    0.84170    0.57360    1.000
