# CIF file generated by openbabel 3.1.0, see https://openbabel.org
data_I
_chemical_name_common 'QOVWOP_clean'
_cell_length_a 11.1414
_cell_length_b 11.1414
_cell_length_c 18.662
_cell_angle_alpha 93.4858
_cell_angle_beta 93.4858
_cell_angle_gamma 114.961
_space_group_name_H-M_alt 'P 1'
_space_group_name_Hall 'P 1'
loop_
    _symmetry_equiv_pos_as_xyz
    x,y,z
loop_
    _atom_site_label
    _atom_site_type_symbol
    _atom_site_fract_x
    _atom_site_fract_y
    _atom_site_fract_z
    _atom_site_occupancy
    Cd1      Cd       0.36918    0.13500    0.41017    1.000
    Cd2      Cd       0.13500    0.36918    0.91017    1.000
    Cd3      Cd       0.86500    0.63082    0.08983    1.000
    Cd4      Cd       0.63082    0.86500    0.58983    1.000
    H1       H        0.84170    0.01150    0.07320    1.000
    H2       H        0.56540    0.39860    0.05430    1.000
    H3       H        0.93650    0.84890    0.96030    1.000
    H4       H        0.39860    0.56540    0.55430    1.000
    H5       H        0.71580    0.24760    0.11890    1.000
    H6       H        0.29450    0.58550    0.17070    1.000
    H7       H        0.75530    0.57230    0.53560    1.000
    H8       H        0.18420    0.73860    0.06100    1.000
    H9       H        0.93740    0.82080    0.76380    1.000
    H10      H        0.02630    0.39050    0.59630    1.000
    H11      H        0.15830    0.98850    0.92680    1.000
    H12      H        0.39050    0.02630    0.09630    1.000
    H13      H        0.57230    0.75530    0.03560    1.000
    H14      H        0.16640    0.43740    0.07670    1.000
    H15      H        0.24760    0.71580    0.61890    1.000
    H16      H        0.15110    0.06350    0.53970    1.000
    H17      H        0.16590    0.62170    0.29730    1.000
    H18      H        0.81580    0.26140    0.93900    1.000
    H19      H        0.24470    0.42770    0.46440    1.000
    H20      H        0.28420    0.75240    0.88110    1.000
    H21      H        0.26140    0.81580    0.43900    1.000
    H22      H        0.96330    0.28490    0.16840    1.000
    H23      H        0.43740    0.16640    0.57670    1.000
    H24      H        0.82080    0.93740    0.26380    1.000
    H25      H        0.98850    0.15830    0.42680    1.000
    H26      H        0.84890    0.93650    0.46030    1.000
    H27      H        0.70550    0.41450    0.82930    1.000
    H28      H        0.83360    0.56260    0.92330    1.000
    H29      H        0.37830    0.83410    0.20270    1.000
    H30      H        0.82170    0.40810    0.33800    1.000
    H31      H        0.43460    0.60140    0.94570    1.000
    H32      H        0.69680    0.11960    0.15650    1.000
    H33      H        0.06350    0.15110    0.03970    1.000
    H34      H        0.97370    0.60950    0.40370    1.000
    H35      H        0.59190    0.17830    0.16200    1.000
    H36      H        0.30320    0.88040    0.84350    1.000
    H37      H        0.11960    0.69680    0.65650    1.000
    H38      H        0.62170    0.16590    0.79730    1.000
    H39      H        0.06260    0.17920    0.23620    1.000
    H40      H        0.03670    0.71510    0.83160    1.000
    H41      H        0.42770    0.24470    0.96440    1.000
    H42      H        0.41450    0.70550    0.32930    1.000
    H43      H        0.17920    0.06260    0.73620    1.000
    H44      H        0.75240    0.28420    0.38110    1.000
    H45      H        0.56260    0.83360    0.42330    1.000
    H46      H        0.83410    0.37830    0.70270    1.000
    H47      H        0.28490    0.96330    0.66840    1.000
    H48      H        0.60950    0.97370    0.90370    1.000
    H49      H        0.40810    0.82170    0.83800    1.000
    H50      H        0.17830    0.59190    0.66200    1.000
    H51      H        0.58550    0.29450    0.67070    1.000
    H52      H        0.88040    0.30320    0.34350    1.000
    H53      H        0.60140    0.43460    0.44570    1.000
    H54      H        0.71510    0.03670    0.33160    1.000
    H55      H        0.73860    0.18420    0.56100    1.000
    H56      H        0.01150    0.84170    0.57320    1.000
    C1       C        0.50280    0.24880    0.56830    1.000
    C2       C        0.21080    0.47160    0.32466    1.000
    C3       C        0.59380    0.40100    0.00840    1.000
    C4       C        0.02440    0.33160    0.20770    1.000
    C5       C        0.53302    0.14658    0.78454    1.000
    C6       C        0.91500    0.73100    0.75210    1.000
    C7       C        0.16370    0.65170    0.63150    1.000
    C8       C        0.46698    0.85342    0.21546    1.000
    C9       C        0.86330    0.07830    0.04220    1.000
    C10      C        0.51010    0.30810    0.95470    1.000
    C11      C        0.83630    0.34830    0.36850    1.000
    C12      C        0.65170    0.16370    0.13150    1.000
    C13      C        0.73367    0.75033    0.15749    1.000
    C14      C        0.33160    0.02440    0.70770    1.000
    C15      C        0.34830    0.83630    0.86850    1.000
    C16      C        0.46460    0.05500    0.72624    1.000
    C17      C        0.30810    0.51010    0.45470    1.000
    C18      C        0.67450    0.40850    0.87480    1.000
    C19      C        0.56400    0.98320    0.94220    1.000
    C20      C        0.78920    0.52840    0.67534    1.000
    C21      C        0.98320    0.56400    0.44220    1.000
    C22      C        0.97560    0.66840    0.79230    1.000
    C23      C        0.69190    0.48990    0.54530    1.000
    C24      C        0.94500    0.53540    0.77376    1.000
    C25      C        0.15600    0.98520    0.52350    1.000
    C26      C        0.07910    0.57470    0.56440    1.000
    C27      C        0.46660    0.00680    0.31920    1.000
    C28      C        0.05840    0.63480    0.50460    1.000
    C29      C        0.59900    0.40620    0.49160    1.000
    C30      C        0.05500    0.46460    0.22624    1.000
    C31      C        0.73100    0.91500    0.25210    1.000
    C32      C        0.63480    0.05840    0.00460    1.000
    C33      C        0.17888    0.33772    0.30532    1.000
    C34      C        0.48990    0.69190    0.04530    1.000
    C35      C        0.42530    0.92090    0.93560    1.000
    C36      C        0.44908    0.68972    0.11480    1.000
    C37      C        0.13670    0.92170    0.95780    1.000
    C38      C        0.75033    0.73367    0.65749    1.000
    C39      C        0.40850    0.67450    0.37480    1.000
    C40      C        0.14940    0.78320    0.03180    1.000
    C41      C        0.01680    0.43600    0.55780    1.000
    C42      C        0.52840    0.78920    0.17534    1.000
    C43      C        0.53340    0.99320    0.68080    1.000
    C44      C        0.55092    0.31028    0.88520    1.000
    C45      C        0.07830    0.86330    0.54220    1.000
    C46      C        0.68972    0.44908    0.61480    1.000
    C47      C        0.85342    0.46698    0.71546    1.000
    C48      C        0.78320    0.14940    0.53180    1.000
    C49      C        0.92090    0.42530    0.43560    1.000
    C50      C        0.36520    0.94160    0.99540    1.000
    C51      C        0.26633    0.24967    0.84251    1.000
    C52      C        0.40620    0.59900    0.99160    1.000
    C53      C        0.24880    0.50280    0.06830    1.000
    C54      C        0.85060    0.21680    0.96820    1.000
    C55      C        0.66840    0.97560    0.29230    1.000
    C56      C        0.53540    0.94500    0.27376    1.000
    C57      C        0.21680    0.85060    0.46820    1.000
    C58      C        0.75120    0.49720    0.93170    1.000
    C59      C        0.57470    0.07910    0.06440    1.000
    C60      C        0.99320    0.53340    0.18080    1.000
    C61      C        0.47160    0.21080    0.82466    1.000
    C62      C        0.01480    0.84400    0.97650    1.000
    C63      C        0.98520    0.15600    0.02350    1.000
    C64      C        0.66228    0.82112    0.19468    1.000
    C65      C        0.26900    0.08500    0.74790    1.000
    C66      C        0.00680    0.46660    0.81920    1.000
    C67      C        0.33772    0.17888    0.80532    1.000
    C68      C        0.82112    0.66228    0.69468    1.000
    C69      C        0.59150    0.32550    0.62520    1.000
    C70      C        0.08500    0.26900    0.24790    1.000
    C71      C        0.43600    0.01680    0.05780    1.000
    C72      C        0.32550    0.59150    0.12520    1.000
    C73      C        0.49720    0.75120    0.43170    1.000
    C74      C        0.14658    0.53302    0.28454    1.000
    C75      C        0.92170    0.13670    0.45780    1.000
    C76      C        0.84400    0.01480    0.47650    1.000
    C77      C        0.24967    0.26633    0.34251    1.000
    C78      C        0.94160    0.36520    0.49540    1.000
    C79      C        0.31028    0.55092    0.38520    1.000
    C80      C        0.40100    0.59380    0.50840    1.000
    N1       N        0.11842    0.77778    0.50611    1.000
    N2       N        0.28579    0.50501    0.00187    1.000
    N3       N        0.97683    0.24317    0.97709    1.000
    N4       N        0.77778    0.11842    0.00611    1.000
    N5       N        0.22222    0.88158    0.99389    1.000
    N6       N        0.71421    0.49499    0.99813    1.000
    N7       N        0.75683    0.02317    0.52291    1.000
    N8       N        0.49499    0.71421    0.49813    1.000
    N9       N        0.24317    0.97683    0.47709    1.000
    N10      N        0.88158    0.22222    0.49389    1.000
    N11      N        0.50501    0.28579    0.50187    1.000
    N12      N        0.02317    0.75683    0.02291    1.000
    O1       O        0.81768    0.83572    0.62937    1.000
    O2       O        0.34686    0.98054    0.30291    1.000
    O3       O        0.01946    0.65314    0.19709    1.000
    O4       O        0.52998    0.08062    0.37439    1.000
    O5       O        0.98054    0.34686    0.80291    1.000
    O6       O        0.65314    0.01946    0.69709    1.000
    O7       O        0.37247    0.30993    0.34348    1.000
    O8       O        0.62753    0.69007    0.65652    1.000
    O9       O        0.16428    0.18232    0.87063    1.000
    O10      O        0.83572    0.81768    0.12937    1.000
    O11      O        0.08062    0.52998    0.87439    1.000
    O12      O        0.18232    0.16428    0.37063    1.000
    O13      O        0.69007    0.62753    0.15652    1.000
    O14      O        0.30993    0.37247    0.84348    1.000
    O15      O        0.91938    0.47002    0.12561    1.000
    O16      O        0.47002    0.91938    0.62561    1.000
