# CIF file generated by openbabel 3.1.0, see https://openbabel.org
data_I
_chemical_name_common 'image0'
_cell_length_a 12.624
_cell_length_b 15.891
_cell_length_c 16.585
_cell_angle_alpha 90
_cell_angle_beta 105.217
_cell_angle_gamma 90
_space_group_name_H-M_alt 'P 1'
_space_group_name_Hall 'P 1'
loop_
    _symmetry_equiv_pos_as_xyz
    x,y,z
loop_
    _atom_site_label
    _atom_site_type_symbol
    _atom_site_fract_x
    _atom_site_fract_y
    _atom_site_fract_z
    _atom_site_occupancy
    U1       U        0.34927    0.80168    0.10788    1.000
    U2       U        0.26393    0.10750    0.23791    1.000
    U3       U        0.18895    0.47202    0.24602    1.000
    C1       C        0.27550    0.59130    0.10160    1.000
    C2       C        0.44640    0.40580    0.23850    1.000
    C3       C        0.52160    0.18390    0.22230    1.000
    C4       C        0.35830    0.01120    0.07510    1.000
    C5       C        0.09440    0.13920    0.84500    1.000
    C6       C        0.02820    0.38580    0.81450    1.000
    C7       C        0.30760    0.52190    0.04780    1.000
    H1       H        0.24380    0.50830    0.00260    1.000
    H2       H        0.36330    0.54410    0.02300    1.000
    C8       C        0.45230    0.44870    0.15690    1.000
    H3       H        0.47270    0.50720    0.16830    1.000
    H4       H        0.50920    0.42190    0.13640    1.000
    C9       C        0.51950    0.17400    0.13070    1.000
    H5       H        0.55080    0.22420    0.11300    1.000
    H6       H        0.56620    0.12690    0.12560    1.000
    C10      C        0.39050    0.08150    0.02860    1.000
    H7       H        0.45540    0.06510    0.01150    1.000
    H8       H        0.33200    0.09120    0.97830    1.000
    C11      C        0.04230    0.18930    0.90340    1.000
    H9       H        0.96380    0.19240    0.87820    1.000
    H10      H        0.05320    0.15840    0.95540    1.000
    C12      C        0.01290    0.34420    0.89430    1.000
    H11      H        0.02500    0.38620    0.93820    1.000
    H12      H        0.93750    0.32520    0.88390    1.000
    C13      C        0.18390    0.28440    0.97680    1.000
    C14      C        0.31250    0.36710    0.06020    1.000
    C15      C        0.34150    0.22870    0.05340    1.000
    N1       N        0.24560    0.21490    0.99920    1.000
    N2       N        0.37950    0.30200    0.08980    1.000
    N3       N        0.21620    0.36400    0.00300    1.000
    N4       N        0.34900    0.44480    0.09220    1.000
    N5       N        0.08370    0.27480    0.92310    1.000
    N6       N        0.41340    0.16040    0.07530    1.000
    O1       O        0.27080    0.66440    0.07310    1.000
    O2       O        0.25550    0.57090    0.16930    1.000
    O3       O        0.35670    0.40320    0.25750    1.000
    O4       O        0.53570    0.37910    0.28280    1.000
    O5       O        0.60440    0.22220    0.26660    1.000
    O6       O        0.44930    0.15150    0.25100    1.000
    O7       O        0.31990    0.02530    0.13770    1.000
    O8       O        0.36630    0.93640    0.04750    1.000
    O9       O        0.05400    0.06800    0.82220    1.000
    O10      O        0.17570    0.16300    0.82000    1.000
    O11      O        0.11310    0.37140    0.79250    1.000
    O12      O        0.95220    0.42860    0.77430    1.000
    U4       U        0.65073    0.30168    0.39212    1.000
    U5       U        0.73607    0.60750    0.26209    1.000
    U6       U        0.81105    0.97202    0.25398    1.000
    C16      C        0.72450    0.09130    0.39840    1.000
    C17      C        0.55360    0.90580    0.26150    1.000
    C18      C        0.47840    0.68390    0.27770    1.000
    C19      C        0.64170    0.51120    0.42490    1.000
    C20      C        0.90560    0.63920    0.65500    1.000
    C21      C        0.97180    0.88580    0.68550    1.000
    C22      C        0.69240    0.02190    0.45220    1.000
    H13      H        0.75620    0.00830    0.49740    1.000
    H14      H        0.63670    0.04410    0.47700    1.000
    C23      C        0.54770    0.94870    0.34310    1.000
    H15      H        0.52730    0.00720    0.33170    1.000
    H16      H        0.49080    0.92190    0.36360    1.000
    C24      C        0.48050    0.67400    0.36930    1.000
    H17      H        0.44920    0.72420    0.38700    1.000
    H18      H        0.43380    0.62690    0.37440    1.000
    C25      C        0.60950    0.58150    0.47140    1.000
    H19      H        0.54460    0.56510    0.48850    1.000
    H20      H        0.66800    0.59120    0.52170    1.000
    C26      C        0.95770    0.68930    0.59660    1.000
    H21      H        0.03620    0.69240    0.62180    1.000
    H22      H        0.94680    0.65840    0.54460    1.000
    C27      C        0.98710    0.84420    0.60570    1.000
    H23      H        0.97500    0.88620    0.56180    1.000
    H24      H        0.06250    0.82520    0.61610    1.000
    C28      C        0.81610    0.78440    0.52320    1.000
    C29      C        0.68750    0.86710    0.43980    1.000
    C30      C        0.65850    0.72870    0.44660    1.000
    N7       N        0.75440    0.71490    0.50080    1.000
    N8       N        0.62050    0.80200    0.41020    1.000
    N9       N        0.78380    0.86400    0.49700    1.000
    N10      N        0.65100    0.94480    0.40780    1.000
    N11      N        0.91630    0.77480    0.57690    1.000
    N12      N        0.58660    0.66040    0.42470    1.000
    O13      O        0.72920    0.16440    0.42690    1.000
    O14      O        0.74450    0.07090    0.33070    1.000
    O15      O        0.64330    0.90320    0.24250    1.000
    O16      O        0.46430    0.87910    0.21720    1.000
    O17      O        0.39560    0.72220    0.23340    1.000
    O18      O        0.55070    0.65150    0.24900    1.000
    O19      O        0.68010    0.52530    0.36230    1.000
    O20      O        0.63370    0.43640    0.45250    1.000
    O21      O        0.94600    0.56800    0.67780    1.000
    O22      O        0.82430    0.66300    0.68000    1.000
    O23      O        0.88690    0.87140    0.70750    1.000
    O24      O        0.04780    0.92860    0.72570    1.000
    U7       U        0.65073    0.19832    0.89212    1.000
    U8       U        0.73607    0.89250    0.76209    1.000
    U9       U        0.81105    0.52798    0.75398    1.000
    C31      C        0.72450    0.40870    0.89840    1.000
    C32      C        0.55360    0.59420    0.76150    1.000
    C33      C        0.47840    0.81610    0.77770    1.000
    C34      C        0.64170    0.98880    0.92490    1.000
    C35      C        0.90560    0.86080    0.15500    1.000
    C36      C        0.97180    0.61420    0.18550    1.000
    C37      C        0.69240    0.47810    0.95220    1.000
    H25      H        0.75620    0.49170    0.99740    1.000
    H26      H        0.63670    0.45590    0.97700    1.000
    C38      C        0.54770    0.55130    0.84310    1.000
    H27      H        0.52730    0.49280    0.83170    1.000
    H28      H        0.49080    0.57810    0.86360    1.000
    C39      C        0.48050    0.82600    0.86930    1.000
    H29      H        0.44920    0.77580    0.88700    1.000
    H30      H        0.43380    0.87310    0.87440    1.000
    C40      C        0.60950    0.91850    0.97140    1.000
    H31      H        0.54460    0.93490    0.98850    1.000
    H32      H        0.66800    0.90880    0.02170    1.000
    C41      C        0.95770    0.81070    0.09660    1.000
    H33      H        0.03620    0.80760    0.12180    1.000
    H34      H        0.94680    0.84160    0.04460    1.000
    C42      C        0.98710    0.65580    0.10570    1.000
    H35      H        0.97500    0.61380    0.06180    1.000
    H36      H        0.06250    0.67480    0.11610    1.000
    C43      C        0.81610    0.71560    0.02320    1.000
    C44      C        0.68750    0.63290    0.93980    1.000
    C45      C        0.65850    0.77130    0.94660    1.000
    N13      N        0.75440    0.78510    0.00080    1.000
    N14      N        0.62050    0.69800    0.91020    1.000
    N15      N        0.78380    0.63600    0.99700    1.000
    N16      N        0.65100    0.55520    0.90780    1.000
    N17      N        0.91630    0.72520    0.07690    1.000
    N18      N        0.58660    0.83960    0.92470    1.000
    O25      O        0.72920    0.33560    0.92690    1.000
    O26      O        0.74450    0.42910    0.83070    1.000
    O27      O        0.64330    0.59680    0.74250    1.000
    O28      O        0.46430    0.62090    0.71720    1.000
    O29      O        0.39560    0.77780    0.73340    1.000
    O30      O        0.55070    0.84850    0.74900    1.000
    O31      O        0.68010    0.97470    0.86230    1.000
    O32      O        0.63370    0.06360    0.95250    1.000
    O33      O        0.94600    0.93200    0.17780    1.000
    O34      O        0.82430    0.83700    0.18000    1.000
    O35      O        0.88690    0.62860    0.20750    1.000
    O36      O        0.04780    0.57140    0.22570    1.000
    U10      U        0.34927    0.69832    0.60788    1.000
    U11      U        0.26393    0.39250    0.73791    1.000
    U12      U        0.18895    0.02798    0.74602    1.000
    C46      C        0.27550    0.90870    0.60160    1.000
    C47      C        0.44640    0.09420    0.73850    1.000
    C48      C        0.52160    0.31610    0.72230    1.000
    C49      C        0.35830    0.48880    0.57510    1.000
    C50      C        0.09440    0.36080    0.34500    1.000
    C51      C        0.02820    0.11420    0.31450    1.000
    C52      C        0.30760    0.97810    0.54780    1.000
    H37      H        0.24380    0.99170    0.50260    1.000
    H38      H        0.36330    0.95590    0.52300    1.000
    C53      C        0.45230    0.05130    0.65690    1.000
    H39      H        0.47270    0.99280    0.66830    1.000
    H40      H        0.50920    0.07810    0.63640    1.000
    C54      C        0.51950    0.32600    0.63070    1.000
    H41      H        0.55080    0.27580    0.61300    1.000
    H42      H        0.56620    0.37310    0.62560    1.000
    C55      C        0.39050    0.41850    0.52860    1.000
    H43      H        0.45540    0.43490    0.51150    1.000
    H44      H        0.33200    0.40880    0.47830    1.000
    C56      C        0.04230    0.31070    0.40340    1.000
    H45      H        0.96380    0.30760    0.37820    1.000
    H46      H        0.05320    0.34160    0.45540    1.000
    C57      C        0.01290    0.15580    0.39430    1.000
    H47      H        0.02500    0.11380    0.43820    1.000
    H48      H        0.93750    0.17480    0.38390    1.000
    C58      C        0.18390    0.21560    0.47680    1.000
    C59      C        0.31250    0.13290    0.56020    1.000
    C60      C        0.34150    0.27130    0.55340    1.000
    N19      N        0.24560    0.28510    0.49920    1.000
    N20      N        0.37950    0.19800    0.58980    1.000
    N21      N        0.21620    0.13600    0.50300    1.000
    N22      N        0.34900    0.05520    0.59220    1.000
    N23      N        0.08370    0.22520    0.42310    1.000
    N24      N        0.41340    0.33960    0.57530    1.000
    O37      O        0.27080    0.83560    0.57310    1.000
    O38      O        0.25550    0.92910    0.66930    1.000
    O39      O        0.35670    0.09680    0.75750    1.000
    O40      O        0.53570    0.12090    0.78280    1.000
    O41      O        0.60440    0.27780    0.76660    1.000
    O42      O        0.44930    0.34850    0.75100    1.000
    O43      O        0.31990    0.47470    0.63770    1.000
    O44      O        0.36630    0.56360    0.54750    1.000
    O45      O        0.05400    0.43200    0.32220    1.000
    O46      O        0.17570    0.33700    0.32000    1.000
    O47      O        0.11310    0.12860    0.29250    1.000
    O48      O        0.95220    0.07140    0.27430    1.000
