# CIF file generated by openbabel 3.1.0, see https://openbabel.org
data_I
_chemical_name_common 'VEHKIE_clean'
_cell_length_a 20.3179
_cell_length_b 20.3179
_cell_length_c 20.3179
_cell_angle_alpha 109.471
_cell_angle_beta 109.471
_cell_angle_gamma 109.471
_space_group_name_H-M_alt 'P 1'
_space_group_name_Hall 'P 1'
loop_
    _symmetry_equiv_pos_as_xyz
    x,y,z
loop_
    _atom_site_label
    _atom_site_type_symbol
    _atom_site_fract_x
    _atom_site_fract_y
    _atom_site_fract_z
    _atom_site_occupancy
    Zn1      Zn       0.52079    0.05620    0.94613    1.000
    H2       H        0.78980    0.27580    0.24540    1.000
    H3       H        0.74740    0.25830    0.03230    1.000
    H4       H        0.93510    0.45890    0.23760    1.000
    C5       C        0.80402    0.29839    0.21583    1.000
    C6       C        0.75741    0.25489    0.13194    1.000
    C7       C        0.77809    0.28754    0.08829    1.000
    C8       C        0.84471    0.36434    0.12635    1.000
    C9       C        0.89078    0.40750    0.21124    1.000
    C10      C        0.87065    0.37403    0.25602    1.000
    C11      C        0.68127    0.17488    0.09151    1.000
    C12      C        0.92014    0.42114    0.34508    1.000
    C13      C        0.86460    0.40120    0.07740    1.000
    O14      O        0.63616    0.14366    0.01804    1.000
    O15      O        0.67116    0.14507    0.13509    1.000
    O16      O        0.97936    0.48877    0.37721    1.000
    O17      O        0.89602    0.38737    0.38107    1.000
    O18      O        0.92421    0.47168    0.11759    1.000
    O19      O        0.82646    0.36352    0.00504    1.000
    Zn20     Zn       0.11007    0.57466    0.05387    1.000
    H21      H        0.03040    0.54440    0.75460    1.000
    H22      H        0.22600    0.71510    0.96770    1.000
    H23      H        0.22130    0.69750    0.76240    1.000
    C24      C        0.08256    0.58819    0.78417    1.000
    C25      C        0.12295    0.62547    0.86806    1.000
    C26      C        0.19925    0.68980    0.91171    1.000
    C27      C        0.23799    0.71836    0.87365    1.000
    C28      C        0.19626    0.67954    0.78876    1.000
    C29      C        0.11801    0.61463    0.74398    1.000
    C30      C        0.08337    0.58976    0.90849    1.000
    C31      C        0.07606    0.57506    0.65492    1.000
    C32      C        0.32380    0.78720    0.92260    1.000
    O33      O        0.12562    0.61812    0.98196    1.000
    O34      O        0.00998    0.53607    0.86491    1.000
    O35      O        0.11156    0.60215    0.62279    1.000
    O36      O        0.00630    0.51495    0.61893    1.000
    O37      O        0.35409    0.80662    0.88241    1.000
    O38      O        0.35848    0.82142    0.99496    1.000
    Zn39     Zn       0.88993    0.94380    0.46459    1.000
    H40      H        0.96960    0.72420    0.51400    1.000
    H41      H        0.77400    0.74170    0.48910    1.000
    H42      H        0.77870    0.54110    0.47620    1.000
    C43      C        0.91744    0.70161    0.50563    1.000
    C44      C        0.87705    0.74511    0.50252    1.000
    C45      C        0.80075    0.71246    0.49055    1.000
    C46      C        0.76201    0.63566    0.48037    1.000
    C47      C        0.80374    0.59250    0.48328    1.000
    C48      C        0.88199    0.62597    0.49662    1.000
    C49      C        0.91663    0.82512    0.50639    1.000
    C50      C        0.92394    0.57886    0.49900    1.000
    C51      C        0.67620    0.59880    0.46340    1.000
    O52      O        0.87438    0.85634    0.49250    1.000
    O53      O        0.99002    0.85493    0.52609    1.000
    O54      O        0.88844    0.51123    0.49059    1.000
    O55      O        0.99370    0.61263    0.50865    1.000
    O56      O        0.64591    0.52832    0.45253    1.000
    O57      O        0.64152    0.63648    0.46294    1.000
    Zn58     Zn       0.47921    0.42534    0.53541    1.000
    H59      H        0.21020    0.45560    0.48600    1.000
    H60      H        0.25260    0.28490    0.51090    1.000
    H61      H        0.06490    0.30250    0.52380    1.000
    C62      C        0.19598    0.41181    0.49437    1.000
    C63      C        0.24259    0.37453    0.49748    1.000
    C64      C        0.22191    0.31020    0.50945    1.000
    C65      C        0.15529    0.28164    0.51963    1.000
    C66      C        0.10922    0.32046    0.51672    1.000
    C67      C        0.12935    0.38537    0.50338    1.000
    C68      C        0.31873    0.41024    0.49361    1.000
    C69      C        0.07986    0.42494    0.50100    1.000
    C70      C        0.13540    0.21280    0.53660    1.000
    O71      O        0.36384    0.38188    0.50750    1.000
    O72      O        0.32884    0.46393    0.47391    1.000
    O73      O        0.02064    0.39785    0.50941    1.000
    O74      O        0.10398    0.48505    0.49135    1.000
    O75      O        0.07579    0.19338    0.54747    1.000
    O76      O        0.17354    0.17858    0.53706    1.000
    Zn77     Zn       0.94613    0.52079    0.05620    1.000
    H78      H        0.24540    0.78980    0.27580    1.000
    H79      H        0.03230    0.74740    0.25830    1.000
    H80      H        0.23760    0.93510    0.45890    1.000
    C81      C        0.21583    0.80402    0.29839    1.000
    C82      C        0.13194    0.75741    0.25489    1.000
    C83      C        0.08829    0.77809    0.28754    1.000
    C84      C        0.12635    0.84471    0.36434    1.000
    C85      C        0.21124    0.89078    0.40750    1.000
    C86      C        0.25602    0.87065    0.37403    1.000
    C87      C        0.09151    0.68127    0.17488    1.000
    C88      C        0.34508    0.92014    0.42114    1.000
    C89      C        0.07740    0.86460    0.40120    1.000
    O90      O        0.01804    0.63616    0.14366    1.000
    O91      O        0.13509    0.67116    0.14507    1.000
    O92      O        0.37721    0.97936    0.48877    1.000
    O93      O        0.38107    0.89602    0.38737    1.000
    O94      O        0.11759    0.92421    0.47168    1.000
    O95      O        0.00504    0.82646    0.36352    1.000
    Zn96     Zn       0.05387    0.11007    0.57466    1.000
    H97      H        0.75460    0.03040    0.54440    1.000
    H98      H        0.96770    0.22600    0.71510    1.000
    H99      H        0.76240    0.22130    0.69750    1.000
    C100     C        0.78417    0.08256    0.58819    1.000
    C101     C        0.86806    0.12295    0.62547    1.000
    C102     C        0.91171    0.19925    0.68980    1.000
    C103     C        0.87365    0.23799    0.71836    1.000
    C104     C        0.78876    0.19626    0.67954    1.000
    C105     C        0.74398    0.11801    0.61463    1.000
    C106     C        0.90849    0.08337    0.58976    1.000
    C107     C        0.65492    0.07606    0.57506    1.000
    C108     C        0.92260    0.32380    0.78720    1.000
    O109     O        0.98196    0.12562    0.61812    1.000
    O110     O        0.86491    0.00998    0.53607    1.000
    O111     O        0.62279    0.11156    0.60215    1.000
    O112     O        0.61893    0.00630    0.51495    1.000
    O113     O        0.88241    0.35409    0.80662    1.000
    O114     O        0.99496    0.35848    0.82142    1.000
    Zn115    Zn       0.46459    0.88993    0.94380    1.000
    H116     H        0.51400    0.96960    0.72420    1.000
    H117     H        0.48910    0.77400    0.74170    1.000
    H118     H        0.47620    0.77870    0.54110    1.000
    C119     C        0.50563    0.91744    0.70161    1.000
    C120     C        0.50252    0.87705    0.74511    1.000
    C121     C        0.49055    0.80075    0.71246    1.000
    C122     C        0.48037    0.76201    0.63566    1.000
    C123     C        0.48328    0.80374    0.59250    1.000
    C124     C        0.49662    0.88199    0.62597    1.000
    C125     C        0.50639    0.91663    0.82512    1.000
    C126     C        0.49900    0.92394    0.57886    1.000
    C127     C        0.46340    0.67620    0.59880    1.000
    O128     O        0.49250    0.87438    0.85634    1.000
    O129     O        0.52609    0.99002    0.85493    1.000
    O130     O        0.49059    0.88844    0.51123    1.000
    O131     O        0.50865    0.99370    0.61263    1.000
    O132     O        0.45253    0.64591    0.52832    1.000
    O133     O        0.46294    0.64152    0.63648    1.000
    Zn134    Zn       0.53541    0.47921    0.42534    1.000
    H135     H        0.48600    0.21020    0.45560    1.000
    H136     H        0.51090    0.25260    0.28490    1.000
    H137     H        0.52380    0.06490    0.30250    1.000
    C138     C        0.49437    0.19598    0.41181    1.000
    C139     C        0.49748    0.24259    0.37453    1.000
    C140     C        0.50945    0.22191    0.31020    1.000
    C141     C        0.51963    0.15529    0.28164    1.000
    C142     C        0.51672    0.10922    0.32046    1.000
    C143     C        0.50338    0.12935    0.38537    1.000
    C144     C        0.49361    0.31873    0.41024    1.000
    C145     C        0.50100    0.07986    0.42494    1.000
    C146     C        0.53660    0.13540    0.21280    1.000
    O147     O        0.50750    0.36384    0.38188    1.000
    O148     O        0.47391    0.32884    0.46393    1.000
    O149     O        0.50941    0.02064    0.39785    1.000
    O150     O        0.49135    0.10398    0.48505    1.000
    O151     O        0.54747    0.07579    0.19338    1.000
    O152     O        0.53706    0.17354    0.17858    1.000
    Zn153    Zn       0.05620    0.94613    0.52079    1.000
    H154     H        0.27580    0.24540    0.78980    1.000
    H155     H        0.25830    0.03230    0.74740    1.000
    H156     H        0.45890    0.23760    0.93510    1.000
    C157     C        0.29839    0.21583    0.80402    1.000
    C158     C        0.25489    0.13194    0.75741    1.000
    C159     C        0.28754    0.08829    0.77809    1.000
    C160     C        0.36434    0.12635    0.84471    1.000
    C161     C        0.40750    0.21124    0.89078    1.000
    C162     C        0.37403    0.25602    0.87065    1.000
    C163     C        0.17488    0.09151    0.68127    1.000
    C164     C        0.42114    0.34508    0.92014    1.000
    C165     C        0.40120    0.07740    0.86460    1.000
    O166     O        0.14366    0.01804    0.63616    1.000
    O167     O        0.14507    0.13509    0.67116    1.000
    O168     O        0.48877    0.37721    0.97936    1.000
    O169     O        0.38737    0.38107    0.89602    1.000
    O170     O        0.47168    0.11759    0.92421    1.000
    O171     O        0.36352    0.00504    0.82646    1.000
    Zn172    Zn       0.57466    0.05387    0.11007    1.000
    H173     H        0.54440    0.75460    0.03040    1.000
    H174     H        0.71510    0.96770    0.22600    1.000
    H175     H        0.69750    0.76240    0.22130    1.000
    C176     C        0.58819    0.78417    0.08256    1.000
    C177     C        0.62547    0.86806    0.12295    1.000
    C178     C        0.68980    0.91171    0.19925    1.000
    C179     C        0.71836    0.87365    0.23799    1.000
    C180     C        0.67954    0.78876    0.19626    1.000
    C181     C        0.61463    0.74398    0.11801    1.000
    C182     C        0.58976    0.90849    0.08337    1.000
    C183     C        0.57506    0.65492    0.07606    1.000
    C184     C        0.78720    0.92260    0.32380    1.000
    O185     O        0.61812    0.98196    0.12562    1.000
    O186     O        0.53607    0.86491    0.00998    1.000
    O187     O        0.60215    0.62279    0.11156    1.000
    O188     O        0.51495    0.61893    0.00630    1.000
    O189     O        0.80662    0.88241    0.35409    1.000
    O190     O        0.82142    0.99496    0.35848    1.000
    Zn191    Zn       0.94380    0.46459    0.88993    1.000
    H192     H        0.72420    0.51400    0.96960    1.000
    H193     H        0.74170    0.48910    0.77400    1.000
    H194     H        0.54110    0.47620    0.77870    1.000
    C195     C        0.70161    0.50563    0.91744    1.000
    C196     C        0.74511    0.50252    0.87705    1.000
    C197     C        0.71246    0.49055    0.80075    1.000
    C198     C        0.63566    0.48037    0.76201    1.000
    C199     C        0.59250    0.48328    0.80374    1.000
    C200     C        0.62597    0.49662    0.88199    1.000
    C201     C        0.82512    0.50639    0.91663    1.000
    C202     C        0.57886    0.49900    0.92394    1.000
    C203     C        0.59880    0.46340    0.67620    1.000
    O204     O        0.85634    0.49250    0.87438    1.000
    O205     O        0.85493    0.52609    0.99002    1.000
    O206     O        0.51123    0.49059    0.88844    1.000
    O207     O        0.61263    0.50865    0.99370    1.000
    O208     O        0.52832    0.45253    0.64591    1.000
    O209     O        0.63648    0.46294    0.64152    1.000
    Zn210    Zn       0.42534    0.53541    0.47921    1.000
    H211     H        0.45560    0.48600    0.21020    1.000
    H212     H        0.28490    0.51090    0.25260    1.000
    H213     H        0.30250    0.52380    0.06490    1.000
    C214     C        0.41181    0.49437    0.19598    1.000
    C215     C        0.37453    0.49748    0.24259    1.000
    C216     C        0.31020    0.50945    0.22191    1.000
    C217     C        0.28164    0.51963    0.15529    1.000
    C218     C        0.32046    0.51672    0.10922    1.000
    C219     C        0.38537    0.50338    0.12935    1.000
    C220     C        0.41024    0.49361    0.31873    1.000
    C221     C        0.42494    0.50100    0.07986    1.000
    C222     C        0.21280    0.53660    0.13540    1.000
    O223     O        0.38188    0.50750    0.36384    1.000
    O224     O        0.46393    0.47391    0.32884    1.000
    O225     O        0.39785    0.50941    0.02064    1.000
    O226     O        0.48505    0.49135    0.10398    1.000
    O227     O        0.19338    0.54747    0.07579    1.000
    O228     O        0.17858    0.53706    0.17354    1.000
    H229     H        0.44088    0.00000    0.00000    1.000
    O232     O        0.48908    0.00000    0.00000    1.000
    H233     H        0.00000    0.44088    0.00000    1.000
    O236     O        0.00000    0.48908    0.00000    1.000
    H237     H        0.00000    0.00000    0.44088    1.000
    O240     O        0.00000    0.00000    0.48908    1.000
    H241     H        0.55912    0.55912    0.55912    1.000
    O244     O        0.51092    0.51092    0.51092    1.000
    Zn245    Zn       0.93658    0.43658    0.50000    1.000
    Zn246    Zn       0.06342    0.56342    0.50000    1.000
    Zn247    Zn       0.50000    0.93658    0.43658    1.000
    Zn248    Zn       0.50000    0.06342    0.56342    1.000
    Zn249    Zn       0.43658    0.50000    0.93658    1.000
    Zn250    Zn       0.56342    0.50000    0.06342    1.000
