# CIF file generated by openbabel 3.1.0, see https://openbabel.org
data_I
_chemical_name_common 'WAYMIU_manual'
_cell_length_a 6.5603
_cell_length_b 15.9846
_cell_length_c 13.4441
_cell_angle_alpha 90
_cell_angle_beta 90
_cell_angle_gamma 90
_space_group_name_H-M_alt 'P 1'
_space_group_name_Hall 'P 1'
loop_
    _symmetry_equiv_pos_as_xyz
    x,y,z
loop_
    _atom_site_label
    _atom_site_type_symbol
    _atom_site_fract_x
    _atom_site_fract_y
    _atom_site_fract_z
    _atom_site_occupancy
    O1       O        0.67103    0.92167    0.32894    1.000
    O2       O        0.32415    0.58019    0.65930    1.000
    C3       C        0.31443    0.78080    0.45533    1.000
    C4       C        0.31412    0.71188    0.51963    1.000
    H5       H        0.17045    0.80599    0.43035    1.000
    H6       H        0.17014    0.68583    0.54288    1.000
    O7       O        0.17001    0.42137    0.82924    1.000
    O8       O        0.82478    0.08084    0.15944    1.000
    C9       C        0.81389    0.28106    0.95609    1.000
    C10      C        0.81433    0.21211    0.02018    1.000
    H11      H        0.66997    0.30625    0.93116    1.000
    H12      H        0.67067    0.18595    0.04338    1.000
    O13      O        0.32219    0.08221    0.33171    1.000
    O14      O        0.66786    0.42340    0.66193    1.000
    C15      C        0.67963    0.22083    0.46092    1.000
    C16      C        0.67966    0.28995    0.52495    1.000
    H17      H        0.82387    0.19573    0.43623    1.000
    H18      H        0.82375    0.31627    0.54840    1.000
    O19      O        0.82201    0.58251    0.83135    1.000
    O20      O        0.16814    0.92345    0.16185    1.000
    C21      C        0.17957    0.72140    0.96020    1.000
    C22      C        0.17980    0.79032    0.02447    1.000
    H23      H        0.32367    0.69653    0.93516    1.000
    H24      H        0.32384    0.81644    0.04830    1.000
    O25      O        0.66783    0.08220    0.33109    1.000
    O26      O        0.32280    0.42401    0.66023    1.000
    C27      C        0.31128    0.22104    0.46067    1.000
    C28      C        0.31109    0.29015    0.52475    1.000
    H29      H        0.16702    0.19604    0.43588    1.000
    H30      H        0.16690    0.31670    0.54784    1.000
    O31      O        0.16857    0.58292    0.82988    1.000
    O32      O        0.82210    0.92390    0.16063    1.000
    C33      C        0.81110    0.72149    0.96003    1.000
    C34      C        0.81118    0.79041    0.02433    1.000
    H35      H        0.66679    0.69667    0.93499    1.000
    H36      H        0.66716    0.81668    0.04790    1.000
    O37      O        0.32503    0.92179    0.32948    1.000
    O38      O        0.67036    0.58076    0.65937    1.000
    C39      C        0.68293    0.78079    0.45556    1.000
    C40      C        0.68242    0.71173    0.51994    1.000
    H41      H        0.82749    0.80599    0.43057    1.000
    H42      H        0.82673    0.68567    0.54345    1.000
    O43      O        0.82455    0.42236    0.82992    1.000
    O44      O        0.17042    0.08071    0.15975    1.000
    C45      C        0.18257    0.28125    0.95596    1.000
    C46      C        0.18273    0.21216    0.02013    1.000
    H47      H        0.32689    0.30655    0.93093    1.000
    H48      H        0.32701    0.18606    0.04347    1.000
    Al49     Al       0.74492    0.00313    0.24597    1.000
    Al50     Al       0.24402    0.50270    0.74610    1.000
    Al51     Al       0.24461    0.00306    0.24645    1.000
    Al52     Al       0.74482    0.50292    0.74655    1.000
    O53      O        0.99486    0.00467    0.29987    1.000
    O54      O        0.49404    0.50392    0.79971    1.000
    O55      O        0.49525    0.00479    0.19327    1.000
    O56      O        0.99393    0.50371    0.69305    1.000
    C57      C        0.49777    0.67774    0.55476    1.000
    C58      C        0.49868    0.81729    0.42412    1.000
    C59      C        0.49711    0.60849    0.62870    1.000
    C60      C        0.49825    0.89157    0.35713    1.000
    C61      C        0.99846    0.17810    0.05512    1.000
    C62      C        0.99778    0.31763    0.92475    1.000
    C63      C        0.99787    0.10874    0.12894    1.000
    C64      C        0.99711    0.39186    0.85769    1.000
    C65      C        0.49553    0.32474    0.55871    1.000
    C66      C        0.49552    0.18493    0.42861    1.000
    C67      C        0.49571    0.39517    0.63091    1.000
    C68      C        0.49518    0.11172    0.36008    1.000
    C69      C        0.99560    0.82489    0.05855    1.000
    C70      C        0.99547    0.68558    0.92769    1.000
    C71      C        0.99529    0.89519    0.13114    1.000
    C72      C        0.99566    0.61228    0.85908    1.000
    H73      H        0.99276    0.50377    0.62882    1.000
    H74      H        0.49297    0.50424    0.86374    1.000
    H75      H        0.49552    0.00573    0.12915    1.000
    H76      H        0.99484    0.00542    0.36402    1.000
