# CIF file generated by openbabel 3.1.0, see https://openbabel.org
data_I
_chemical_name_common 'image0'
_cell_length_a 17.107
_cell_length_b 17.107
_cell_length_c 14.133
_cell_angle_alpha 90
_cell_angle_beta 90
_cell_angle_gamma 120
_space_group_name_H-M_alt 'P 1'
_space_group_name_Hall 'P 1'
loop_
    _symmetry_equiv_pos_as_xyz
    x,y,z
loop_
    _atom_site_label
    _atom_site_type_symbol
    _atom_site_fract_x
    _atom_site_fract_y
    _atom_site_fract_z
    _atom_site_occupancy
    O1       O        0.78340    0.42690    0.18280    1.000
    N1       N        0.11250    0.50310    0.40800    1.000
    N2       N        0.22600    0.55690    0.51190    1.000
    C1       C        0.96960    0.45790    0.32920    1.000
    H1       H        0.93830    0.42470    0.38210    1.000
    C2       C        0.06240    0.50420    0.32770    1.000
    C3       C        0.18820    0.57570    0.44210    1.000
    H2       H        0.21100    0.63360    0.41790    1.000
    C4       C        0.10020    0.42890    0.46060    1.000
    C5       C        0.03900    0.33730    0.45400    1.000
    H3       H        0.99210    0.31470    0.41020    1.000
    C6       C        0.05050    0.28150    0.51500    1.000
    H4       H        0.01150    0.21950    0.51110    1.000
    C7       C        0.11980    0.31550    0.58360    1.000
    H5       H        0.12400    0.27610    0.62580    1.000
    C8       C        0.18150    0.40700    0.58860    1.000
    H6       H        0.22810    0.42940    0.63270    1.000
    C9       C        0.17230    0.46430    0.52630    1.000
    O2       O        0.57310    0.35650    0.18280    1.000
    N3       N        0.49690    0.60940    0.40800    1.000
    N4       N        0.44310    0.66910    0.51190    1.000
    C10      C        0.54210    0.51170    0.32920    1.000
    H7       H        0.57530    0.51360    0.38210    1.000
    C11      C        0.49580    0.55820    0.32770    1.000
    C12      C        0.42430    0.61250    0.44210    1.000
    H8       H        0.36640    0.57740    0.41790    1.000
    C13      C        0.57110    0.67130    0.46060    1.000
    C14      C        0.66270    0.70170    0.45400    1.000
    H9       H        0.68530    0.67740    0.41020    1.000
    C15      C        0.71850    0.76900    0.51500    1.000
    H10      H        0.78050    0.79200    0.51110    1.000
    C16      C        0.68450    0.80430    0.58360    1.000
    H11      H        0.72390    0.84790    0.62580    1.000
    C17      C        0.59300    0.77450    0.58860    1.000
    H12      H        0.57060    0.79870    0.63270    1.000
    C18      C        0.53570    0.70800    0.52630    1.000
    O3       O        0.64350    0.21660    0.18280    1.000
    N5       N        0.39060    0.88750    0.40800    1.000
    N6       N        0.33090    0.77400    0.51190    1.000
    C19      C        0.48830    0.03040    0.32920    1.000
    H13      H        0.48640    0.06170    0.38210    1.000
    C20      C        0.44180    0.93760    0.32770    1.000
    C21      C        0.38750    0.81180    0.44210    1.000
    H14      H        0.42260    0.78900    0.41790    1.000
    C22      C        0.32870    0.89980    0.46060    1.000
    C23      C        0.29830    0.96100    0.45400    1.000
    H15      H        0.32260    0.00790    0.41020    1.000
    C24      C        0.23100    0.94950    0.51500    1.000
    H16      H        0.20800    0.98850    0.51110    1.000
    C25      C        0.19570    0.88020    0.58360    1.000
    H17      H        0.15210    0.87600    0.62580    1.000
    C26      C        0.22550    0.81850    0.58860    1.000
    H18      H        0.20130    0.77190    0.63270    1.000
    C27      C        0.29200    0.82770    0.52630    1.000
    O4       O        0.57310    0.21660    0.31720    1.000
    N7       N        0.49690    0.88750    0.09200    1.000
    N8       N        0.44310    0.77400    0.98810    1.000
    C28      C        0.54210    0.03040    0.17080    1.000
    H19      H        0.57530    0.06170    0.11790    1.000
    C29      C        0.49580    0.93760    0.17230    1.000
    C30      C        0.42430    0.81180    0.05790    1.000
    H20      H        0.36640    0.78900    0.08210    1.000
    C31      C        0.57110    0.89980    0.03940    1.000
    C32      C        0.66270    0.96100    0.04600    1.000
    H21      H        0.68530    0.00790    0.08980    1.000
    C33      C        0.71850    0.94950    0.98500    1.000
    H22      H        0.78050    0.98850    0.98890    1.000
    C34      C        0.68450    0.88020    0.91640    1.000
    H23      H        0.72390    0.87600    0.87420    1.000
    C35      C        0.59300    0.81850    0.91140    1.000
    H24      H        0.57060    0.77190    0.86730    1.000
    C36      C        0.53570    0.82770    0.97370    1.000
    O5       O        0.64350    0.42690    0.31720    1.000
    N9       N        0.39060    0.50310    0.09200    1.000
    N10      N        0.33090    0.55690    0.98810    1.000
    C37      C        0.48830    0.45790    0.17080    1.000
    H25      H        0.48640    0.42470    0.11790    1.000
    C38      C        0.44180    0.50420    0.17230    1.000
    C39      C        0.38750    0.57570    0.05790    1.000
    H26      H        0.42260    0.63360    0.08210    1.000
    C40      C        0.32870    0.42890    0.03940    1.000
    C41      C        0.29830    0.33730    0.04600    1.000
    H27      H        0.32260    0.31470    0.08980    1.000
    C42      C        0.23100    0.28150    0.98500    1.000
    H28      H        0.20800    0.21950    0.98890    1.000
    C43      C        0.19570    0.31550    0.91640    1.000
    H29      H        0.15210    0.27610    0.87420    1.000
    C44      C        0.22550    0.40700    0.91140    1.000
    H30      H        0.20130    0.42940    0.86730    1.000
    C45      C        0.29200    0.46430    0.97370    1.000
    O6       O        0.78340    0.35650    0.31720    1.000
    N11      N        0.11250    0.60940    0.09200    1.000
    N12      N        0.22600    0.66910    0.98810    1.000
    C46      C        0.96960    0.51170    0.17080    1.000
    H31      H        0.93830    0.51360    0.11790    1.000
    C47      C        0.06240    0.55820    0.17230    1.000
    C48      C        0.18820    0.61250    0.05790    1.000
    H32      H        0.21100    0.57740    0.08210    1.000
    C49      C        0.10020    0.67130    0.03940    1.000
    C50      C        0.03900    0.70170    0.04600    1.000
    H33      H        0.99210    0.67740    0.08980    1.000
    C51      C        0.05050    0.76900    0.98500    1.000
    H34      H        0.01150    0.79200    0.98890    1.000
    C52      C        0.11980    0.80430    0.91640    1.000
    H35      H        0.12400    0.84790    0.87420    1.000
    C53      C        0.18150    0.77450    0.91140    1.000
    H36      H        0.22810    0.79870    0.86730    1.000
    C54      C        0.17230    0.70800    0.97370    1.000
    O7       O        0.21660    0.57310    0.81720    1.000
    N13      N        0.88750    0.49690    0.59200    1.000
    N14      N        0.77400    0.44310    0.48810    1.000
    C55      C        0.03040    0.54210    0.67080    1.000
    H37      H        0.06170    0.57530    0.61790    1.000
    C56      C        0.93760    0.49580    0.67230    1.000
    C57      C        0.81180    0.42430    0.55790    1.000
    H38      H        0.78900    0.36640    0.58210    1.000
    C58      C        0.89980    0.57110    0.53940    1.000
    C59      C        0.96100    0.66270    0.54600    1.000
    H39      H        0.00790    0.68530    0.58980    1.000
    C60      C        0.94950    0.71850    0.48500    1.000
    H40      H        0.98850    0.78050    0.48890    1.000
    C61      C        0.88020    0.68450    0.41640    1.000
    H41      H        0.87600    0.72390    0.37420    1.000
    C62      C        0.81850    0.59300    0.41140    1.000
    H42      H        0.77190    0.57060    0.36730    1.000
    C63      C        0.82770    0.53570    0.47370    1.000
    O8       O        0.42690    0.64350    0.81720    1.000
    N15      N        0.50310    0.39060    0.59200    1.000
    N16      N        0.55690    0.33090    0.48810    1.000
    C64      C        0.45790    0.48830    0.67080    1.000
    H43      H        0.42470    0.48640    0.61790    1.000
    C65      C        0.50420    0.44180    0.67230    1.000
    C66      C        0.57570    0.38750    0.55790    1.000
    H44      H        0.63360    0.42260    0.58210    1.000
    C67      C        0.42890    0.32870    0.53940    1.000
    C68      C        0.33730    0.29830    0.54600    1.000
    H45      H        0.31470    0.32260    0.58980    1.000
    C69      C        0.28150    0.23100    0.48500    1.000
    H46      H        0.21950    0.20800    0.48890    1.000
    C70      C        0.31550    0.19570    0.41640    1.000
    H47      H        0.27610    0.15210    0.37420    1.000
    C71      C        0.40700    0.22550    0.41140    1.000
    H48      H        0.42940    0.20130    0.36730    1.000
    C72      C        0.46430    0.29200    0.47370    1.000
    O9       O        0.35650    0.78340    0.81720    1.000
    N17      N        0.60940    0.11250    0.59200    1.000
    N18      N        0.66910    0.22600    0.48810    1.000
    C73      C        0.51170    0.96960    0.67080    1.000
    H49      H        0.51360    0.93830    0.61790    1.000
    C74      C        0.55820    0.06240    0.67230    1.000
    C75      C        0.61250    0.18820    0.55790    1.000
    H50      H        0.57740    0.21100    0.58210    1.000
    C76      C        0.67130    0.10020    0.53940    1.000
    C77      C        0.70170    0.03900    0.54600    1.000
    H51      H        0.67740    0.99210    0.58980    1.000
    C78      C        0.76900    0.05050    0.48500    1.000
    H52      H        0.79200    0.01150    0.48890    1.000
    C79      C        0.80430    0.11980    0.41640    1.000
    H53      H        0.84790    0.12400    0.37420    1.000
    C80      C        0.77450    0.18150    0.41140    1.000
    H54      H        0.79870    0.22810    0.36730    1.000
    C81      C        0.70800    0.17230    0.47370    1.000
    O10      O        0.42690    0.78340    0.68280    1.000
    N19      N        0.50310    0.11250    0.90800    1.000
    N20      N        0.55690    0.22600    0.01190    1.000
    C82      C        0.45790    0.96960    0.82920    1.000
    H55      H        0.42470    0.93830    0.88210    1.000
    C83      C        0.50420    0.06240    0.82770    1.000
    C84      C        0.57570    0.18820    0.94210    1.000
    H56      H        0.63360    0.21100    0.91790    1.000
    C85      C        0.42890    0.10020    0.96060    1.000
    C86      C        0.33730    0.03900    0.95400    1.000
    H57      H        0.31470    0.99210    0.91020    1.000
    C87      C        0.28150    0.05050    0.01500    1.000
    H58      H        0.21950    0.01150    0.01110    1.000
    C88      C        0.31550    0.11980    0.08360    1.000
    H59      H        0.27610    0.12400    0.12580    1.000
    C89      C        0.40700    0.18150    0.08860    1.000
    H60      H        0.42940    0.22810    0.13270    1.000
    C90      C        0.46430    0.17230    0.02630    1.000
    O11      O        0.35650    0.57310    0.68280    1.000
    N21      N        0.60940    0.49690    0.90800    1.000
    N22      N        0.66910    0.44310    0.01190    1.000
    C91      C        0.51170    0.54210    0.82920    1.000
    H61      H        0.51360    0.57530    0.88210    1.000
    C92      C        0.55820    0.49580    0.82770    1.000
    C93      C        0.61250    0.42430    0.94210    1.000
    H62      H        0.57740    0.36640    0.91790    1.000
    C94      C        0.67130    0.57110    0.96060    1.000
    C95      C        0.70170    0.66270    0.95400    1.000
    H63      H        0.67740    0.68530    0.91020    1.000
    C96      C        0.76900    0.71850    0.01500    1.000
    H64      H        0.79200    0.78050    0.01110    1.000
    C97      C        0.80430    0.68450    0.08360    1.000
    H65      H        0.84790    0.72390    0.12580    1.000
    C98      C        0.77450    0.59300    0.08860    1.000
    H66      H        0.79870    0.57060    0.13270    1.000
    C99      C        0.70800    0.53570    0.02630    1.000
    O12      O        0.21660    0.64350    0.68280    1.000
    N23      N        0.88750    0.39060    0.90800    1.000
    N24      N        0.77400    0.33090    0.01190    1.000
    C100     C        0.03040    0.48830    0.82920    1.000
    H67      H        0.06170    0.48640    0.88210    1.000
    C101     C        0.93760    0.44180    0.82770    1.000
    C102     C        0.81180    0.38750    0.94210    1.000
    H68      H        0.78900    0.42260    0.91790    1.000
    C103     C        0.89980    0.32870    0.96060    1.000
    C104     C        0.96100    0.29830    0.95400    1.000
    H69      H        0.00790    0.32260    0.91020    1.000
    C105     C        0.94950    0.23100    0.01500    1.000
    H70      H        0.98850    0.20800    0.01110    1.000
    C106     C        0.88020    0.19570    0.08360    1.000
    H71      H        0.87600    0.15210    0.12580    1.000
    C107     C        0.81850    0.22550    0.08860    1.000
    H72      H        0.77190    0.20130    0.13270    1.000
    C108     C        0.82770    0.29200    0.02630    1.000
    Mn1      Mn       0.66667    0.33333    0.10675    1.000
    Mn2      Mn       0.66667    0.33333    0.39325    1.000
    Mn3      Mn       0.33333    0.66667    0.89325    1.000
    Mn4      Mn       0.33333    0.66667    0.60675    1.000
    C109     C        0.82120    0.41060    0.25000    1.000
    C110     C        0.92360    0.46180    0.25000    1.000
    C111     C        0.11000    0.55500    0.25000    1.000
    H73      H        0.17270    0.58635    0.25000    1.000
    C112     C        0.58940    0.41060    0.25000    1.000
    C113     C        0.53820    0.46180    0.25000    1.000
    C114     C        0.44500    0.55500    0.25000    1.000
    H74      H        0.41365    0.58635    0.25000    1.000
    C115     C        0.58940    0.17880    0.25000    1.000
    C116     C        0.53820    0.07640    0.25000    1.000
    C117     C        0.44500    0.89000    0.25000    1.000
    H75      H        0.41365    0.82730    0.25000    1.000
    C118     C        0.17880    0.58940    0.75000    1.000
    C119     C        0.07640    0.53820    0.75000    1.000
    C120     C        0.89000    0.44500    0.75000    1.000
    H76      H        0.82730    0.41365    0.75000    1.000
    C121     C        0.41060    0.58940    0.75000    1.000
    C122     C        0.46180    0.53820    0.75000    1.000
    C123     C        0.55500    0.44500    0.75000    1.000
    H77      H        0.58635    0.41365    0.75000    1.000
    C124     C        0.41060    0.82120    0.75000    1.000
    C125     C        0.46180    0.92360    0.75000    1.000
    C126     C        0.55500    0.11000    0.75000    1.000
    H78      H        0.58635    0.17270    0.75000    1.000
