# CIF file generated by openbabel 3.1.0, see https://openbabel.org
data_I
_chemical_name_common 'image0'
_cell_length_a 12.3651
_cell_length_b 12.3651
_cell_length_c 37.4849
_cell_angle_alpha 90
_cell_angle_beta 90
_cell_angle_gamma 120
_space_group_name_H-M_alt 'P 1'
_space_group_name_Hall 'P 1'
loop_
    _symmetry_equiv_pos_as_xyz
    x,y,z
loop_
    _atom_site_label
    _atom_site_type_symbol
    _atom_site_fract_x
    _atom_site_fract_y
    _atom_site_fract_z
    _atom_site_occupancy
    In1      In       0.55072    0.16662    0.38057    1.000
    O1       O        0.59630    0.31130    0.34311    1.000
    O2       O        0.39090    0.00330    0.35981    1.000
    O3       O        0.39730    0.25330    0.33268    1.000
    O4       O        0.25730    0.02750    0.39410    1.000
    O5       O        0.73690    0.28670    0.40349    1.000
    N1       N        0.51580    0.54430    0.25672    1.000
    N2       N        0.12360    0.47620    0.40200    1.000
    C1       C        0.12360    0.64740    0.43140    1.000
    N3       N        0.11380    0.66390    0.32247    1.000
    C2       C        0.20320    0.77180    0.33510    1.000
    H1       H        0.28560    0.79850    0.32900    1.000
    C3       C        0.48040    0.44510    0.27820    1.000
    H2       H        0.39910    0.37850    0.27620    1.000
    C4       C        0.55760    0.43660    0.30310    1.000
    C5       C        0.05690    0.80510    0.36780    1.000
    H3       H        0.03690    0.85250    0.38280    1.000
    C6       C        0.50760    0.32240    0.32790    1.000
    C7       C        0.99510    0.62240    0.33240    1.000
    H4       H        0.93270    0.54650    0.32350    1.000
    C8       C        0.63370    0.64170    0.26030    1.000
    H5       H        0.66010    0.71220    0.24610    1.000
    C9       C        0.67830    0.53540    0.30610    1.000
    H6       H        0.73360    0.53240    0.32230    1.000
    C10      C        0.71510    0.63750    0.28470    1.000
    H7       H        0.79580    0.70490    0.28670    1.000
    C11      C        0.28240    0.96980    0.37210    1.000
    C12      C        0.96230    0.68750    0.35520    1.000
    H8       H        0.87970    0.65530    0.36220    1.000
    C13      C        0.99550    0.41020    0.40170    1.000
    C14      C        0.17780    0.84790    0.35770    1.000
    In2      In       0.83338    0.38410    0.04723    1.000
    O6       O        0.68870    0.28500    0.00978    1.000
    O7       O        0.99670    0.38760    0.02648    1.000
    O8       O        0.74670    0.14400    0.99935    1.000
    O9       O        0.97250    0.22980    0.06077    1.000
    O10      O        0.71330    0.45020    0.07016    1.000
    N4       N        0.45570    0.97150    0.92339    1.000
    N5       N        0.52380    0.64740    0.06867    1.000
    C15      C        0.35260    0.47620    0.09807    1.000
    N6       N        0.33610    0.44990    0.98914    1.000
    C16      C        0.22820    0.43140    0.00177    1.000
    H9       H        0.20150    0.48710    0.99567    1.000
    C17      C        0.55490    0.03530    0.94487    1.000
    H10      H        0.62150    0.02060    0.94287    1.000
    C18      C        0.56340    0.12100    0.96977    1.000
    C19      C        0.19490    0.25180    0.03447    1.000
    H11      H        0.14750    0.18440    0.04947    1.000
    C20      C        0.67760    0.18520    0.99457    1.000
    C21      C        0.37760    0.37270    0.99907    1.000
    H12      H        0.45350    0.38620    0.99017    1.000
    C22      C        0.35830    0.99200    0.92697    1.000
    H13      H        0.28780    0.94790    0.91277    1.000
    C23      C        0.46460    0.14290    0.97277    1.000
    H14      H        0.46760    0.20120    0.98897    1.000
    C24      C        0.36250    0.07760    0.95137    1.000
    H15      H        0.29510    0.09090    0.95337    1.000
    C25      C        0.03020    0.31260    0.03877    1.000
    C26      C        0.31250    0.27480    0.02187    1.000
    H16      H        0.34470    0.22440    0.02887    1.000
    C27      C        0.58980    0.58530    0.06837    1.000
    C28      C        0.15210    0.32990    0.02437    1.000
    In3      In       0.61590    0.44928    0.71390    1.000
    O11      O        0.71500    0.40370    0.67644    1.000
    O12      O        0.61240    0.60910    0.69314    1.000
    O13      O        0.85600    0.60270    0.66601    1.000
    O14      O        0.77020    0.74270    0.72743    1.000
    O15      O        0.54980    0.26310    0.73682    1.000
    N7       N        0.02850    0.48420    0.59005    1.000
    N8       N        0.35260    0.87640    0.73533    1.000
    C29      C        0.52380    0.87640    0.76473    1.000
    N9       N        0.55010    0.88620    0.65580    1.000
    C30      C        0.56860    0.79680    0.66843    1.000
    H17      H        0.51290    0.71440    0.66233    1.000
    C31      C        0.96470    0.51960    0.61153    1.000
    H18      H        0.97940    0.60090    0.60953    1.000
    C32      C        0.87900    0.44240    0.63643    1.000
    C33      C        0.74820    0.94310    0.70113    1.000
    H19      H        0.81560    0.96310    0.71613    1.000
    C34      C        0.81480    0.49240    0.66123    1.000
    C35      C        0.62730    0.00490    0.66573    1.000
    H20      H        0.61380    0.06730    0.65683    1.000
    C36      C        0.00800    0.36630    0.59363    1.000
    H21      H        0.05210    0.33990    0.57943    1.000
    C37      C        0.85710    0.32170    0.63943    1.000
    H22      H        0.79880    0.26640    0.65563    1.000
    C38      C        0.92240    0.28490    0.61803    1.000
    H23      H        0.90910    0.20420    0.62003    1.000
    C39      C        0.68740    0.71760    0.70543    1.000
    C40      C        0.72520    0.03770    0.68853    1.000
    H24      H        0.77560    0.12030    0.69553    1.000
    C41      C        0.41470    0.00450    0.73503    1.000
    C42      C        0.67010    0.82220    0.69103    1.000
    In4      In       0.44928    0.83338    0.88057    1.000
    O16      O        0.40370    0.68870    0.84311    1.000
    O17      O        0.60910    0.99670    0.85981    1.000
    O18      O        0.60270    0.74670    0.83268    1.000
    O19      O        0.74270    0.97250    0.89410    1.000
    O20      O        0.26310    0.71330    0.90349    1.000
    N10      N        0.48420    0.45570    0.75672    1.000
    N11      N        0.87640    0.52380    0.90200    1.000
    C43      C        0.87640    0.35260    0.93140    1.000
    N12      N        0.88620    0.33610    0.82247    1.000
    C44      C        0.79680    0.22820    0.83510    1.000
    H25      H        0.71440    0.20150    0.82900    1.000
    C45      C        0.51960    0.55490    0.77820    1.000
    H26      H        0.60090    0.62150    0.77620    1.000
    C46      C        0.44240    0.56340    0.80310    1.000
    C47      C        0.94310    0.19490    0.86780    1.000
    H27      H        0.96310    0.14750    0.88280    1.000
    C48      C        0.49240    0.67760    0.82790    1.000
    C49      C        0.00490    0.37760    0.83240    1.000
    H28      H        0.06730    0.45350    0.82350    1.000
    C50      C        0.36630    0.35830    0.76030    1.000
    H29      H        0.33990    0.28780    0.74610    1.000
    C51      C        0.32170    0.46460    0.80610    1.000
    H30      H        0.26640    0.46760    0.82230    1.000
    C52      C        0.28490    0.36250    0.78470    1.000
    H31      H        0.20420    0.29510    0.78670    1.000
    C53      C        0.71760    0.03020    0.87210    1.000
    C54      C        0.03770    0.31250    0.85520    1.000
    H32      H        0.12030    0.34470    0.86220    1.000
    C55      C        0.00450    0.58980    0.90170    1.000
    C56      C        0.82220    0.15210    0.85770    1.000
    In5      In       0.16662    0.61590    0.54723    1.000
    O21      O        0.31130    0.71500    0.50978    1.000
    O22      O        0.00330    0.61240    0.52648    1.000
    O23      O        0.25330    0.85600    0.49935    1.000
    O24      O        0.02750    0.77020    0.56077    1.000
    O25      O        0.28670    0.54980    0.57016    1.000
    N13      N        0.54430    0.02850    0.42339    1.000
    N14      N        0.47620    0.35260    0.56867    1.000
    C57      C        0.64740    0.52380    0.59807    1.000
    N15      N        0.66390    0.55010    0.48914    1.000
    C58      C        0.77180    0.56860    0.50177    1.000
    H33      H        0.79850    0.51290    0.49567    1.000
    C59      C        0.44510    0.96470    0.44487    1.000
    H34      H        0.37850    0.97940    0.44287    1.000
    C60      C        0.43660    0.87900    0.46977    1.000
    C61      C        0.80510    0.74820    0.53447    1.000
    H35      H        0.85250    0.81560    0.54947    1.000
    C62      C        0.32240    0.81480    0.49457    1.000
    C63      C        0.62240    0.62730    0.49907    1.000
    H36      H        0.54650    0.61380    0.49017    1.000
    C64      C        0.64170    0.00800    0.42697    1.000
    H37      H        0.71220    0.05210    0.41277    1.000
    C65      C        0.53540    0.85710    0.47277    1.000
    H38      H        0.53240    0.79880    0.48897    1.000
    C66      C        0.63750    0.92240    0.45137    1.000
    H39      H        0.70490    0.90910    0.45337    1.000
    C67      C        0.96980    0.68740    0.53877    1.000
    C68      C        0.68750    0.72520    0.52187    1.000
    H40      H        0.65530    0.77560    0.52887    1.000
    C69      C        0.41020    0.41470    0.56837    1.000
    C70      C        0.84790    0.67010    0.52437    1.000
    In6      In       0.38410    0.55072    0.21390    1.000
    O26      O        0.28500    0.59630    0.17644    1.000
    O27      O        0.38760    0.39090    0.19314    1.000
    O28      O        0.14400    0.39730    0.16601    1.000
    O29      O        0.22980    0.25730    0.22743    1.000
    O30      O        0.45020    0.73690    0.23682    1.000
    N16      N        0.97150    0.51580    0.09005    1.000
    N17      N        0.64740    0.12360    0.23533    1.000
    C71      C        0.47620    0.12360    0.26473    1.000
    N18      N        0.44990    0.11380    0.15580    1.000
    C72      C        0.43140    0.20320    0.16843    1.000
    H41      H        0.48710    0.28560    0.16233    1.000
    C73      C        0.03530    0.48040    0.11153    1.000
    H42      H        0.02060    0.39910    0.10953    1.000
    C74      C        0.12100    0.55760    0.13643    1.000
    C75      C        0.25180    0.05690    0.20113    1.000
    H43      H        0.18440    0.03690    0.21613    1.000
    C76      C        0.18520    0.50760    0.16123    1.000
    C77      C        0.37270    0.99510    0.16573    1.000
    H44      H        0.38620    0.93270    0.15683    1.000
    C78      C        0.99200    0.63370    0.09363    1.000
    H45      H        0.94790    0.66010    0.07943    1.000
    C79      C        0.14290    0.67830    0.13943    1.000
    H46      H        0.20120    0.73360    0.15563    1.000
    C80      C        0.07760    0.71510    0.11803    1.000
    H47      H        0.09090    0.79580    0.12003    1.000
    C81      C        0.31260    0.28240    0.20543    1.000
    C82      C        0.27480    0.96230    0.18853    1.000
    H48      H        0.22440    0.87970    0.19553    1.000
    C83      C        0.58530    0.99550    0.23503    1.000
    C84      C        0.32990    0.17780    0.19103    1.000
    In7      In       0.16662    0.55072    0.28610    1.000
    O31      O        0.31130    0.59630    0.32356    1.000
    O32      O        0.00330    0.39090    0.30686    1.000
    O33      O        0.25330    0.39730    0.33399    1.000
    O34      O        0.02750    0.25730    0.27257    1.000
    O35      O        0.28670    0.73690    0.26318    1.000
    N19      N        0.54430    0.51580    0.40995    1.000
    N20      N        0.66390    0.11380    0.34420    1.000
    C85      C        0.77180    0.20320    0.33157    1.000
    H49      H        0.79850    0.28560    0.33767    1.000
    C86      C        0.44510    0.48040    0.38847    1.000
    H50      H        0.37850    0.39910    0.39047    1.000
    C87      C        0.43660    0.55760    0.36357    1.000
    C88      C        0.80510    0.05690    0.29887    1.000
    H51      H        0.85250    0.03690    0.28387    1.000
    C89      C        0.32240    0.50760    0.33877    1.000
    C90      C        0.62240    0.99510    0.33427    1.000
    H52      H        0.54650    0.93270    0.34317    1.000
    C91      C        0.64170    0.63370    0.40637    1.000
    H53      H        0.71220    0.66010    0.42057    1.000
    C92      C        0.53540    0.67830    0.36057    1.000
    H54      H        0.53240    0.73360    0.34437    1.000
    C93      C        0.63750    0.71510    0.38197    1.000
    H55      H        0.70490    0.79580    0.37997    1.000
    C94      C        0.96980    0.28240    0.29457    1.000
    C95      C        0.68750    0.96230    0.31147    1.000
    H56      H        0.65530    0.87970    0.30447    1.000
    C96      C        0.41020    0.99550    0.26497    1.000
    C97      C        0.84790    0.17780    0.30897    1.000
    In8      In       0.38410    0.83338    0.61943    1.000
    O36      O        0.28500    0.68870    0.65689    1.000
    O37      O        0.38760    0.99670    0.64019    1.000
    O38      O        0.14400    0.74670    0.66732    1.000
    O39      O        0.22980    0.97250    0.60590    1.000
    O40      O        0.45020    0.71330    0.59651    1.000
    N21      N        0.97150    0.45570    0.74328    1.000
    N22      N        0.44990    0.33610    0.67753    1.000
    C98      C        0.43140    0.22820    0.66490    1.000
    H57      H        0.48710    0.20150    0.67100    1.000
    C99      C        0.03530    0.55490    0.72180    1.000
    H58      H        0.02060    0.62150    0.72380    1.000
    C100     C        0.12100    0.56340    0.69690    1.000
    C101     C        0.25180    0.19490    0.63220    1.000
    H59      H        0.18440    0.14750    0.61720    1.000
    C102     C        0.18520    0.67760    0.67210    1.000
    C103     C        0.37270    0.37760    0.66760    1.000
    H60      H        0.38620    0.45350    0.67650    1.000
    C104     C        0.99200    0.35830    0.73970    1.000
    H61      H        0.94790    0.28780    0.75390    1.000
    C105     C        0.14290    0.46460    0.69390    1.000
    H62      H        0.20120    0.46760    0.67770    1.000
    C106     C        0.07760    0.36250    0.71530    1.000
    H63      H        0.09090    0.29510    0.71330    1.000
    C107     C        0.31260    0.03020    0.62790    1.000
    C108     C        0.27480    0.31250    0.64480    1.000
    H64      H        0.22440    0.34470    0.63780    1.000
    C109     C        0.58530    0.58980    0.59830    1.000
    C110     C        0.32990    0.15210    0.64230    1.000
    In9      In       0.44928    0.61590    0.95277    1.000
    O41      O        0.40370    0.71500    0.99022    1.000
    O42      O        0.60910    0.61240    0.97352    1.000
    O43      O        0.60270    0.85600    0.00065    1.000
    O44      O        0.74270    0.77020    0.93923    1.000
    O45      O        0.26310    0.54980    0.92984    1.000
    N23      N        0.48420    0.02850    0.07661    1.000
    N24      N        0.88620    0.55010    0.01086    1.000
    C111     C        0.79680    0.56860    0.99823    1.000
    H65      H        0.71440    0.51290    0.00433    1.000
    C112     C        0.51960    0.96470    0.05513    1.000
    H66      H        0.60090    0.97940    0.05713    1.000
    C113     C        0.44240    0.87900    0.03023    1.000
    C114     C        0.94310    0.74820    0.96553    1.000
    H67      H        0.96310    0.81560    0.95053    1.000
    C115     C        0.49240    0.81480    0.00543    1.000
    C116     C        0.00490    0.62730    0.00093    1.000
    H68      H        0.06730    0.61380    0.00983    1.000
    C117     C        0.36630    0.00800    0.07303    1.000
    H69      H        0.33990    0.05210    0.08723    1.000
    C118     C        0.32170    0.85710    0.02723    1.000
    H70      H        0.26640    0.79880    0.01103    1.000
    C119     C        0.28490    0.92240    0.04863    1.000
    H71      H        0.20420    0.90910    0.04663    1.000
    C120     C        0.71760    0.68740    0.96123    1.000
    C121     C        0.03770    0.72520    0.97813    1.000
    H72      H        0.12030    0.77560    0.97113    1.000
    C122     C        0.00450    0.41470    0.93163    1.000
    C123     C        0.82220    0.67010    0.97563    1.000
    In10     In       0.83338    0.44928    0.78610    1.000
    O46      O        0.68870    0.40370    0.82356    1.000
    O47      O        0.99670    0.60910    0.80686    1.000
    O48      O        0.74670    0.60270    0.83399    1.000
    O49      O        0.97250    0.74270    0.77257    1.000
    O50      O        0.71330    0.26310    0.76318    1.000
    N25      N        0.45570    0.48420    0.90995    1.000
    N26      N        0.33610    0.88620    0.84420    1.000
    C124     C        0.22820    0.79680    0.83157    1.000
    H73      H        0.20150    0.71440    0.83767    1.000
    C125     C        0.55490    0.51960    0.88847    1.000
    H74      H        0.62150    0.60090    0.89047    1.000
    C126     C        0.56340    0.44240    0.86357    1.000
    C127     C        0.19490    0.94310    0.79887    1.000
    H75      H        0.14750    0.96310    0.78387    1.000
    C128     C        0.67760    0.49240    0.83877    1.000
    C129     C        0.37760    0.00490    0.83427    1.000
    H76      H        0.45350    0.06730    0.84317    1.000
    C130     C        0.35830    0.36630    0.90637    1.000
    H77      H        0.28780    0.33990    0.92057    1.000
    C131     C        0.46460    0.32170    0.86057    1.000
    H78      H        0.46760    0.26640    0.84437    1.000
    C132     C        0.36250    0.28490    0.88197    1.000
    H79      H        0.29510    0.20420    0.87997    1.000
    C133     C        0.03020    0.71760    0.79457    1.000
    C134     C        0.31250    0.03770    0.81147    1.000
    H80      H        0.34470    0.12030    0.80447    1.000
    C135     C        0.58980    0.00450    0.76497    1.000
    C136     C        0.15210    0.82220    0.80897    1.000
    In11     In       0.61590    0.16662    0.11943    1.000
    O51      O        0.71500    0.31130    0.15689    1.000
    O52      O        0.61240    0.00330    0.14019    1.000
    O53      O        0.85600    0.25330    0.16732    1.000
    O54      O        0.77020    0.02750    0.10590    1.000
    O55      O        0.54980    0.28670    0.09651    1.000
    N27      N        0.02850    0.54430    0.24328    1.000
    N28      N        0.55010    0.66390    0.17753    1.000
    C137     C        0.56860    0.77180    0.16490    1.000
    H81      H        0.51290    0.79850    0.17100    1.000
    C138     C        0.96470    0.44510    0.22180    1.000
    H82      H        0.97940    0.37850    0.22380    1.000
    C139     C        0.87900    0.43660    0.19690    1.000
    C140     C        0.74820    0.80510    0.13220    1.000
    H83      H        0.81560    0.85250    0.11720    1.000
    C141     C        0.81480    0.32240    0.17210    1.000
    C142     C        0.62730    0.62240    0.16760    1.000
    H84      H        0.61380    0.54650    0.17650    1.000
    C143     C        0.00800    0.64170    0.23970    1.000
    H85      H        0.05210    0.71220    0.25390    1.000
    C144     C        0.85710    0.53540    0.19390    1.000
    H86      H        0.79880    0.53240    0.17770    1.000
    C145     C        0.92240    0.63750    0.21530    1.000
    H87      H        0.90910    0.70490    0.21330    1.000
    C146     C        0.68740    0.96980    0.12790    1.000
    C147     C        0.72520    0.68750    0.14480    1.000
    H88      H        0.77560    0.65530    0.13780    1.000
    C148     C        0.41470    0.41020    0.09830    1.000
    C149     C        0.67010    0.84790    0.14230    1.000
    In12     In       0.55072    0.38410    0.45277    1.000
    O56      O        0.59630    0.28500    0.49022    1.000
    O57      O        0.39090    0.38760    0.47352    1.000
    O58      O        0.39730    0.14400    0.50065    1.000
    O59      O        0.25730    0.22980    0.43923    1.000
    O60      O        0.73690    0.45020    0.42984    1.000
    N29      N        0.51580    0.97150    0.57661    1.000
    N30      N        0.11380    0.44990    0.51086    1.000
    C150     C        0.20320    0.43140    0.49823    1.000
    H89      H        0.28560    0.48710    0.50433    1.000
    C151     C        0.48040    0.03530    0.55513    1.000
    H90      H        0.39910    0.02060    0.55713    1.000
    C152     C        0.55760    0.12100    0.53023    1.000
    C153     C        0.05690    0.25180    0.46553    1.000
    H91      H        0.03690    0.18440    0.45053    1.000
    C154     C        0.50760    0.18520    0.50543    1.000
    C155     C        0.99510    0.37270    0.50093    1.000
    H92      H        0.93270    0.38620    0.50983    1.000
    C156     C        0.63370    0.99200    0.57303    1.000
    H93      H        0.66010    0.94790    0.58723    1.000
    C157     C        0.67830    0.14290    0.52723    1.000
    H94      H        0.73360    0.20120    0.51103    1.000
    C158     C        0.71510    0.07760    0.54863    1.000
    H95      H        0.79580    0.09090    0.54663    1.000
    C159     C        0.28240    0.31260    0.46123    1.000
    C160     C        0.96230    0.27480    0.47813    1.000
    H96      H        0.87970    0.22440    0.47113    1.000
    C161     C        0.99550    0.58530    0.43163    1.000
    C162     C        0.17780    0.32990    0.47563    1.000
    O61      O        0.47510    0.23755    0.41667    1.000
    C163     C        0.79160    0.39580    0.41667    1.000
    C164     C        0.18760    0.59380    0.41667    1.000
    C165     C        0.93020    0.46510    0.41667    1.000
    O62      O        0.76245    0.23755    0.08333    1.000
    C166     C        0.60420    0.39580    0.08333    1.000
    C167     C        0.40620    0.59380    0.08333    1.000
    C168     C        0.53490    0.46510    0.08333    1.000
    O63      O        0.76245    0.52490    0.75000    1.000
    C169     C        0.60420    0.20840    0.75000    1.000
    C170     C        0.40620    0.81240    0.75000    1.000
    C171     C        0.53490    0.06980    0.75000    1.000
    O64      O        0.52490    0.76245    0.91667    1.000
    C172     C        0.20840    0.60420    0.91667    1.000
    C173     C        0.81240    0.40620    0.91667    1.000
    C174     C        0.06980    0.53490    0.91667    1.000
    O65      O        0.23755    0.76245    0.58333    1.000
    C175     C        0.39580    0.60420    0.58333    1.000
    C176     C        0.59380    0.40620    0.58333    1.000
    C177     C        0.46510    0.53490    0.58333    1.000
    O66      O        0.23755    0.47510    0.25000    1.000
    C178     C        0.39580    0.79160    0.25000    1.000
    C179     C        0.59380    0.18760    0.25000    1.000
    C180     C        0.46510    0.93020    0.25000    1.000
