# CIF file generated by openbabel 3.1.0, see https://openbabel.org
data_I
_chemical_name_common 'image0'
_cell_length_a 34.3413
_cell_length_b 10.0447
_cell_length_c 17.7382
_cell_angle_alpha 90
_cell_angle_beta 96.234
_cell_angle_gamma 90
_space_group_name_H-M_alt 'P 1'
_space_group_name_Hall 'P 1'
loop_
    _symmetry_equiv_pos_as_xyz
    x,y,z
loop_
    _atom_site_label
    _atom_site_type_symbol
    _atom_site_fract_x
    _atom_site_fract_y
    _atom_site_fract_z
    _atom_site_occupancy
    Mg1      Mg       0.22581    0.93787    0.23681    1.000
    Mg2      Mg       0.30357    0.71735    0.27617    1.000
    O1       O        0.24922    0.63350    0.25515    1.000
    O2       O        0.30406    0.20550    0.67040    1.000
    O3       O        0.39631    0.19640    0.42000    1.000
    O4       O        0.39811    0.83590    0.57270    1.000
    O5       O        0.28002    0.90050    0.30710    1.000
    O6       O        0.22840    0.96530    0.36027    1.000
    O7       O        0.24974    0.08490    0.64006    1.000
    O8       O        0.19765    0.76550    0.23042    1.000
    O9       O        0.17709    0.05900    0.20271    1.000
    O10      O        0.23397    0.14990    0.23526    1.000
    O11      O        0.06188    0.43320    0.21420    1.000
    O12      O        0.12227    0.48990    0.00320    1.000
    N1       N        0.09105    0.45890    0.10785    1.000
    N2       N        0.39782    0.01510    0.49630    1.000
    C1       C        0.27537    0.03180    0.49590    1.000
    H1       H        0.24830    0.03400    0.49660    1.000
    C2       C        0.14382    0.31400    0.16460    1.000
    H2       H        0.12870    0.24020    0.14860    1.000
    C3       C        0.26441    0.94550    0.36380    1.000
    C4       C        0.18851    0.53550    0.21080    1.000
    C5       C        0.19832    0.15930    0.21350    1.000
    C6       C        0.21431    0.65300    0.23460    1.000
    C7       C        0.33995    0.07520    0.55830    1.000
    H3       H        0.35650    0.10860    0.59890    1.000
    C8       C        0.47924    0.00330    0.49950    1.000
    C9       C        0.35470    0.02300    0.49650    1.000
    C10      C        0.02002    0.46740    0.09870    1.000
    C11      C        0.20374    0.40650    0.22260    1.000
    H4       H        0.22930    0.39480    0.24510    1.000
    C12      C        0.09132    0.48360    0.03120    1.000
    C13      C        0.01863    0.49310    0.02240    1.000
    C14      C        0.12909    0.44190    0.15200    1.000
    C15      C        0.45877    0.10250    0.45590    1.000
    C16      C        0.18116    0.29780    0.20110    1.000
    C17      C        0.29085    0.98340    0.43240    1.000
    C18      C        0.29975    0.07750    0.55910    1.000
    C19      C        0.15129    0.55080    0.17520    1.000
    H5       H        0.14100    0.63580    0.16680    1.000
    C20      C        0.28265    0.12670    0.62910    1.000
    C21      C        0.41533    0.11010    0.45390    1.000
    C22      C        0.33127    0.98020    0.43330    1.000
    H6       H        0.34110    0.95150    0.39660    1.000
    C23      C        0.98534    0.46410    0.13410    1.000
    H7       H        0.98980    0.45410    0.18750    1.000
    C24      C        0.05030    0.52240    0.90910    1.000
    H8       H        0.07320    0.52970    0.88580    1.000
    C25      C        0.05281    0.49830    0.98580    1.000
    C26      C        0.05827    0.45500    0.14640    1.000
    C27      C        0.41657    0.91350    0.53970    1.000
    C28      C        0.46035    0.90960    0.53960    1.000
    C29      C        0.51847    0.18610    0.41710    1.000
    H9       H        0.53270    0.26420    0.41190    1.000
    C30      C        0.47820    0.19180    0.41550    1.000
    H10      H        0.46510    0.23690    0.37460    1.000
    Mg3      Mg       0.77419    0.93787    0.26319    1.000
    Mg4      Mg       0.69643    0.71735    0.22383    1.000
    O13      O        0.75078    0.63350    0.24485    1.000
    O14      O        0.69594    0.20550    0.82960    1.000
    O15      O        0.60369    0.19640    0.08000    1.000
    O16      O        0.60189    0.83590    0.92730    1.000
    O17      O        0.71998    0.90050    0.19290    1.000
    O18      O        0.77160    0.96530    0.13973    1.000
    O19      O        0.75026    0.08490    0.85994    1.000
    O20      O        0.80235    0.76550    0.26958    1.000
    O21      O        0.82291    0.05900    0.29729    1.000
    O22      O        0.76603    0.14990    0.26474    1.000
    O23      O        0.93812    0.43320    0.28580    1.000
    O24      O        0.87773    0.48990    0.49680    1.000
    N3       N        0.90895    0.45890    0.39215    1.000
    N4       N        0.60218    0.01510    0.00370    1.000
    C31      C        0.72463    0.03180    0.00410    1.000
    H11      H        0.75170    0.03400    0.00340    1.000
    C32      C        0.85618    0.31400    0.33540    1.000
    H12      H        0.87130    0.24020    0.35140    1.000
    C33      C        0.73559    0.94550    0.13620    1.000
    C34      C        0.81149    0.53550    0.28920    1.000
    C35      C        0.80168    0.15930    0.28650    1.000
    C36      C        0.78569    0.65300    0.26540    1.000
    C37      C        0.66005    0.07520    0.94170    1.000
    H13      H        0.64350    0.10860    0.90110    1.000
    C38      C        0.52076    0.00330    0.00050    1.000
    C39      C        0.64530    0.02300    0.00350    1.000
    C40      C        0.97998    0.46740    0.40130    1.000
    C41      C        0.79626    0.40650    0.27740    1.000
    H14      H        0.77070    0.39480    0.25490    1.000
    C42      C        0.90868    0.48360    0.46880    1.000
    C43      C        0.98137    0.49310    0.47760    1.000
    C44      C        0.87091    0.44190    0.34800    1.000
    C45      C        0.54123    0.10250    0.04410    1.000
    C46      C        0.81884    0.29780    0.29890    1.000
    C47      C        0.70915    0.98340    0.06760    1.000
    C48      C        0.70025    0.07750    0.94090    1.000
    C49      C        0.84871    0.55080    0.32480    1.000
    H15      H        0.85900    0.63580    0.33320    1.000
    C50      C        0.71735    0.12670    0.87090    1.000
    C51      C        0.58467    0.11010    0.04610    1.000
    C52      C        0.66873    0.98020    0.06670    1.000
    H16      H        0.65890    0.95150    0.10340    1.000
    C53      C        0.01466    0.46410    0.36590    1.000
    H17      H        0.01020    0.45410    0.31250    1.000
    C54      C        0.94970    0.52240    0.59090    1.000
    H18      H        0.92680    0.52970    0.61420    1.000
    C55      C        0.94719    0.49830    0.51420    1.000
    C56      C        0.94173    0.45500    0.35360    1.000
    C57      C        0.58343    0.91350    0.96030    1.000
    C58      C        0.53965    0.90960    0.96040    1.000
    C59      C        0.48153    0.18610    0.08290    1.000
    H19      H        0.46730    0.26420    0.08810    1.000
    C60      C        0.52180    0.19180    0.08450    1.000
    H20      H        0.53490    0.23690    0.12540    1.000
    Mg5      Mg       0.77419    0.06213    0.76319    1.000
    Mg6      Mg       0.69643    0.28265    0.72383    1.000
    O25      O        0.75078    0.36650    0.74485    1.000
    O26      O        0.69594    0.79450    0.32960    1.000
    O27      O        0.60369    0.80360    0.58000    1.000
    O28      O        0.60189    0.16410    0.42730    1.000
    O29      O        0.71998    0.09950    0.69290    1.000
    O30      O        0.77160    0.03470    0.63973    1.000
    O31      O        0.75026    0.91510    0.35994    1.000
    O32      O        0.80235    0.23450    0.76958    1.000
    O33      O        0.82291    0.94100    0.79729    1.000
    O34      O        0.76603    0.85010    0.76474    1.000
    O35      O        0.93812    0.56680    0.78580    1.000
    O36      O        0.87773    0.51010    0.99680    1.000
    N5       N        0.90895    0.54110    0.89215    1.000
    N6       N        0.60218    0.98490    0.50370    1.000
    C61      C        0.72463    0.96820    0.50410    1.000
    H21      H        0.75170    0.96600    0.50340    1.000
    C62      C        0.85618    0.68600    0.83540    1.000
    H22      H        0.87130    0.75980    0.85140    1.000
    C63      C        0.73559    0.05450    0.63620    1.000
    C64      C        0.81149    0.46450    0.78920    1.000
    C65      C        0.80168    0.84070    0.78650    1.000
    C66      C        0.78569    0.34700    0.76540    1.000
    C67      C        0.66005    0.92480    0.44170    1.000
    H23      H        0.64350    0.89140    0.40110    1.000
    C68      C        0.52076    0.99670    0.50050    1.000
    C69      C        0.64530    0.97700    0.50350    1.000
    C70      C        0.97998    0.53260    0.90130    1.000
    C71      C        0.79626    0.59350    0.77740    1.000
    H24      H        0.77070    0.60520    0.75490    1.000
    C72      C        0.90868    0.51640    0.96880    1.000
    C73      C        0.98137    0.50690    0.97760    1.000
    C74      C        0.87091    0.55810    0.84800    1.000
    C75      C        0.54123    0.89750    0.54410    1.000
    C76      C        0.81884    0.70220    0.79890    1.000
    C77      C        0.70915    0.01660    0.56760    1.000
    C78      C        0.70025    0.92250    0.44090    1.000
    C79      C        0.84871    0.44920    0.82480    1.000
    H25      H        0.85900    0.36420    0.83320    1.000
    C80      C        0.71735    0.87330    0.37090    1.000
    C81      C        0.58467    0.88990    0.54610    1.000
    C82      C        0.66873    0.01980    0.56670    1.000
    H26      H        0.65890    0.04850    0.60340    1.000
    C83      C        0.01466    0.53590    0.86590    1.000
    H27      H        0.01020    0.54590    0.81250    1.000
    C84      C        0.94970    0.47760    0.09090    1.000
    H28      H        0.92680    0.47030    0.11420    1.000
    C85      C        0.94719    0.50170    0.01420    1.000
    C86      C        0.94173    0.54500    0.85360    1.000
    C87      C        0.58343    0.08650    0.46030    1.000
    C88      C        0.53965    0.09040    0.46040    1.000
    C89      C        0.48153    0.81390    0.58290    1.000
    H29      H        0.46730    0.73580    0.58810    1.000
    C90      C        0.52180    0.80820    0.58450    1.000
    H30      H        0.53490    0.76310    0.62540    1.000
    Mg7      Mg       0.22581    0.06213    0.73681    1.000
    Mg8      Mg       0.30357    0.28265    0.77617    1.000
    O37      O        0.24922    0.36650    0.75515    1.000
    O38      O        0.30406    0.79450    0.17040    1.000
    O39      O        0.39631    0.80360    0.92000    1.000
    O40      O        0.39811    0.16410    0.07270    1.000
    O41      O        0.28002    0.09950    0.80710    1.000
    O42      O        0.22840    0.03470    0.86027    1.000
    O43      O        0.24974    0.91510    0.14006    1.000
    O44      O        0.19765    0.23450    0.73042    1.000
    O45      O        0.17709    0.94100    0.70271    1.000
    O46      O        0.23397    0.85010    0.73526    1.000
    O47      O        0.06188    0.56680    0.71420    1.000
    O48      O        0.12227    0.51010    0.50320    1.000
    N7       N        0.09105    0.54110    0.60785    1.000
    N8       N        0.39782    0.98490    0.99630    1.000
    C91      C        0.27537    0.96820    0.99590    1.000
    H31      H        0.24830    0.96600    0.99660    1.000
    C92      C        0.14382    0.68600    0.66460    1.000
    H32      H        0.12870    0.75980    0.64860    1.000
    C93      C        0.26441    0.05450    0.86380    1.000
    C94      C        0.18851    0.46450    0.71080    1.000
    C95      C        0.19832    0.84070    0.71350    1.000
    C96      C        0.21431    0.34700    0.73460    1.000
    C97      C        0.33995    0.92480    0.05830    1.000
    H33      H        0.35650    0.89140    0.09890    1.000
    C98      C        0.47924    0.99670    0.99950    1.000
    C99      C        0.35470    0.97700    0.99650    1.000
    C100     C        0.02002    0.53260    0.59870    1.000
    C101     C        0.20374    0.59350    0.72260    1.000
    H34      H        0.22930    0.60520    0.74510    1.000
    C102     C        0.09132    0.51640    0.53120    1.000
    C103     C        0.01863    0.50690    0.52240    1.000
    C104     C        0.12909    0.55810    0.65200    1.000
    C105     C        0.45877    0.89750    0.95590    1.000
    C106     C        0.18116    0.70220    0.70110    1.000
    C107     C        0.29085    0.01660    0.93240    1.000
    C108     C        0.29975    0.92250    0.05910    1.000
    C109     C        0.15129    0.44920    0.67520    1.000
    H35      H        0.14100    0.36420    0.66680    1.000
    C110     C        0.28265    0.87330    0.12910    1.000
    C111     C        0.41533    0.88990    0.95390    1.000
    C112     C        0.33127    0.01980    0.93330    1.000
    H36      H        0.34110    0.04850    0.89660    1.000
    C113     C        0.98534    0.53590    0.63410    1.000
    H37      H        0.98980    0.54590    0.68750    1.000
    C114     C        0.05030    0.47760    0.40910    1.000
    H38      H        0.07320    0.47030    0.38580    1.000
    C115     C        0.05281    0.50170    0.48580    1.000
    C116     C        0.05827    0.54500    0.64640    1.000
    C117     C        0.41657    0.08650    0.03970    1.000
    C118     C        0.46035    0.09040    0.03960    1.000
    C119     C        0.51847    0.81390    0.91710    1.000
    H39      H        0.53270    0.73580    0.91190    1.000
    C120     C        0.47820    0.80820    0.91550    1.000
    H40      H        0.46510    0.76310    0.87460    1.000
