# CIF file generated by openbabel 3.1.0, see https://openbabel.org
data_I
_chemical_name_common 'image0'
_cell_length_a 18.5462
_cell_length_b 20.0824
_cell_length_c 8.7759
_cell_angle_alpha 90
_cell_angle_beta 101.244
_cell_angle_gamma 90
_space_group_name_H-M_alt 'P 1'
_space_group_name_Hall 'P 1'
loop_
    _symmetry_equiv_pos_as_xyz
    x,y,z
loop_
    _atom_site_label
    _atom_site_type_symbol
    _atom_site_fract_x
    _atom_site_fract_y
    _atom_site_fract_z
    _atom_site_occupancy
    C1       C        0.63070    0.23490    0.40360    1.000
    H1       H        0.63050    0.26200    0.48930    1.000
    C2       C        0.58140    0.20610    0.15460    1.000
    H2       H        0.54600    0.21220    0.06490    1.000
    C3       C        0.63160    0.15530    0.15750    1.000
    H3       H        0.63060    0.12900    0.07000    1.000
    C4       C        0.68140    0.18480    0.41570    1.000
    H4       H        0.71450    0.17860    0.50880    1.000
    C5       C        0.68390    0.14350    0.29220    1.000
    C6       C        0.74070    0.08910    0.30320    1.000
    H5       H        0.78890    0.10940    0.33290    1.000
    H6       H        0.73440    0.05940    0.38690    1.000
    C7       C        0.74060    0.04890    0.16560    1.000
    H7       H        0.74650    0.07810    0.08070    1.000
    H8       H        0.69320    0.02720    0.13670    1.000
    C8       C        0.91680    0.95840    0.14780    1.000
    H9       H        0.95910    0.96650    0.10880    1.000
    C9       C        0.84960    0.89080    0.26960    1.000
    H10      H        0.84440    0.85110    0.32100    1.000
    C10      C        0.86390    0.00730    0.13050    1.000
    H11      H        0.87120    0.04730    0.08220    1.000
    C11      C        0.79330    0.93650    0.25250    1.000
    H12      H        0.75040    0.92610    0.28730    1.000
    C12      C        0.79990    0.99670    0.18520    1.000
    C13      C        0.99730    0.84760    0.88200    1.000
    N1       N        0.91120    0.90070    0.21620    1.000
    N2       N        0.58140    0.24640    0.27310    1.000
    N3       N        0.99740    0.83340    0.00380    1.000
    N4       N        0.98570    0.87600    0.73700    1.000
    C14      C        0.13070    0.73490    0.40360    1.000
    H13      H        0.13050    0.76200    0.48930    1.000
    C15      C        0.08140    0.70610    0.15460    1.000
    H14      H        0.04600    0.71220    0.06490    1.000
    C16      C        0.13160    0.65530    0.15750    1.000
    H15      H        0.13060    0.62900    0.07000    1.000
    C17      C        0.18140    0.68480    0.41570    1.000
    H16      H        0.21450    0.67860    0.50880    1.000
    C18      C        0.18390    0.64350    0.29220    1.000
    C19      C        0.24070    0.58910    0.30320    1.000
    H17      H        0.28890    0.60940    0.33290    1.000
    H18      H        0.23440    0.55940    0.38690    1.000
    C20      C        0.24060    0.54890    0.16560    1.000
    H19      H        0.24650    0.57810    0.08070    1.000
    H20      H        0.19320    0.52720    0.13670    1.000
    C21      C        0.41680    0.45840    0.14780    1.000
    H21      H        0.45910    0.46650    0.10880    1.000
    C22      C        0.34960    0.39080    0.26960    1.000
    H22      H        0.34440    0.35110    0.32100    1.000
    C23      C        0.36390    0.50730    0.13050    1.000
    H23      H        0.37120    0.54730    0.08220    1.000
    C24      C        0.29330    0.43650    0.25250    1.000
    H24      H        0.25040    0.42610    0.28730    1.000
    C25      C        0.29990    0.49670    0.18520    1.000
    C26      C        0.49730    0.34760    0.88200    1.000
    N5       N        0.41120    0.40070    0.21620    1.000
    N6       N        0.08140    0.74640    0.27310    1.000
    N7       N        0.49740    0.33340    0.00380    1.000
    N8       N        0.48570    0.37600    0.73700    1.000
    C27      C        0.36930    0.23490    0.09640    1.000
    H25      H        0.36950    0.26200    0.01070    1.000
    C28      C        0.41860    0.20610    0.34540    1.000
    H26      H        0.45400    0.21220    0.43510    1.000
    C29      C        0.36840    0.15530    0.34250    1.000
    H27      H        0.36940    0.12900    0.43000    1.000
    C30      C        0.31860    0.18480    0.08430    1.000
    H28      H        0.28550    0.17860    0.99120    1.000
    C31      C        0.31610    0.14350    0.20780    1.000
    C32      C        0.25930    0.08910    0.19680    1.000
    H29      H        0.21110    0.10940    0.16710    1.000
    H30      H        0.26560    0.05940    0.11310    1.000
    C33      C        0.25940    0.04890    0.33440    1.000
    H31      H        0.25350    0.07810    0.41930    1.000
    H32      H        0.30680    0.02720    0.36330    1.000
    C34      C        0.08320    0.95840    0.35220    1.000
    H33      H        0.04090    0.96650    0.39120    1.000
    C35      C        0.15040    0.89080    0.23040    1.000
    H34      H        0.15560    0.85110    0.17900    1.000
    C36      C        0.13610    0.00730    0.36950    1.000
    H35      H        0.12880    0.04730    0.41780    1.000
    C37      C        0.20670    0.93650    0.24750    1.000
    H36      H        0.24960    0.92610    0.21270    1.000
    C38      C        0.20010    0.99670    0.31480    1.000
    C39      C        0.00270    0.84760    0.61800    1.000
    N9       N        0.08880    0.90070    0.28380    1.000
    N10      N        0.41860    0.24640    0.22690    1.000
    N11      N        0.00260    0.83340    0.49620    1.000
    N12      N        0.01430    0.87600    0.76300    1.000
    C40      C        0.86930    0.73490    0.09640    1.000
    H37      H        0.86950    0.76200    0.01070    1.000
    C41      C        0.91860    0.70610    0.34540    1.000
    H38      H        0.95400    0.71220    0.43510    1.000
    C42      C        0.86840    0.65530    0.34250    1.000
    H39      H        0.86940    0.62900    0.43000    1.000
    C43      C        0.81860    0.68480    0.08430    1.000
    H40      H        0.78550    0.67860    0.99120    1.000
    C44      C        0.81610    0.64350    0.20780    1.000
    C45      C        0.75930    0.58910    0.19680    1.000
    H41      H        0.71110    0.60940    0.16710    1.000
    H42      H        0.76560    0.55940    0.11310    1.000
    C46      C        0.75940    0.54890    0.33440    1.000
    H43      H        0.75350    0.57810    0.41930    1.000
    H44      H        0.80680    0.52720    0.36330    1.000
    C47      C        0.58320    0.45840    0.35220    1.000
    H45      H        0.54090    0.46650    0.39120    1.000
    C48      C        0.65040    0.39080    0.23040    1.000
    H46      H        0.65560    0.35110    0.17900    1.000
    C49      C        0.63610    0.50730    0.36950    1.000
    H47      H        0.62880    0.54730    0.41780    1.000
    C50      C        0.70670    0.43650    0.24750    1.000
    H48      H        0.74960    0.42610    0.21270    1.000
    C51      C        0.70010    0.49670    0.31480    1.000
    C52      C        0.50270    0.34760    0.61800    1.000
    N13      N        0.58880    0.40070    0.28380    1.000
    N14      N        0.91860    0.74640    0.22690    1.000
    N15      N        0.50260    0.33340    0.49620    1.000
    N16      N        0.51430    0.37600    0.76300    1.000
    Zn1      Zn       0.00000    0.82512    0.25000    1.000
    Zn2      Zn       0.50000    0.32512    0.25000    1.000
    C53      C        0.36930    0.76510    0.59640    1.000
    H49      H        0.36950    0.73800    0.51070    1.000
    C54      C        0.41860    0.79390    0.84540    1.000
    H50      H        0.45400    0.78780    0.93510    1.000
    C55      C        0.36840    0.84470    0.84250    1.000
    H51      H        0.36940    0.87100    0.93000    1.000
    C56      C        0.31860    0.81520    0.58430    1.000
    H52      H        0.28550    0.82140    0.49120    1.000
    C57      C        0.31610    0.85650    0.70780    1.000
    C58      C        0.25930    0.91090    0.69680    1.000
    H53      H        0.21110    0.89060    0.66710    1.000
    H54      H        0.26560    0.94060    0.61310    1.000
    C59      C        0.25940    0.95110    0.83440    1.000
    H55      H        0.25350    0.92190    0.91930    1.000
    H56      H        0.30680    0.97280    0.86330    1.000
    C60      C        0.08320    0.04160    0.85220    1.000
    H57      H        0.04090    0.03350    0.89120    1.000
    C61      C        0.15040    0.10920    0.73040    1.000
    H58      H        0.15560    0.14890    0.67900    1.000
    C62      C        0.13610    0.99270    0.86950    1.000
    H59      H        0.12880    0.95270    0.91780    1.000
    C63      C        0.20670    0.06350    0.74750    1.000
    H60      H        0.24960    0.07390    0.71270    1.000
    C64      C        0.20010    0.00330    0.81480    1.000
    C65      C        0.00270    0.15240    0.11800    1.000
    N17      N        0.08880    0.09930    0.78380    1.000
    N18      N        0.41860    0.75360    0.72690    1.000
    N19      N        0.00260    0.16660    0.99620    1.000
    N20      N        0.01430    0.12400    0.26300    1.000
    C66      C        0.86930    0.26510    0.59640    1.000
    H61      H        0.86950    0.23800    0.51070    1.000
    C67      C        0.91860    0.29390    0.84540    1.000
    H62      H        0.95400    0.28780    0.93510    1.000
    C68      C        0.86840    0.34470    0.84250    1.000
    H63      H        0.86940    0.37100    0.93000    1.000
    C69      C        0.81860    0.31520    0.58430    1.000
    H64      H        0.78550    0.32140    0.49120    1.000
    C70      C        0.81610    0.35650    0.70780    1.000
    C71      C        0.75930    0.41090    0.69680    1.000
    H65      H        0.71110    0.39060    0.66710    1.000
    H66      H        0.76560    0.44060    0.61310    1.000
    C72      C        0.75940    0.45110    0.83440    1.000
    H67      H        0.75350    0.42190    0.91930    1.000
    H68      H        0.80680    0.47280    0.86330    1.000
    C73      C        0.58320    0.54160    0.85220    1.000
    H69      H        0.54090    0.53350    0.89120    1.000
    C74      C        0.65040    0.60920    0.73040    1.000
    H70      H        0.65560    0.64890    0.67900    1.000
    C75      C        0.63610    0.49270    0.86950    1.000
    H71      H        0.62880    0.45270    0.91780    1.000
    C76      C        0.70670    0.56350    0.74750    1.000
    H72      H        0.74960    0.57390    0.71270    1.000
    C77      C        0.70010    0.50330    0.81480    1.000
    C78      C        0.50270    0.65240    0.11800    1.000
    N21      N        0.58880    0.59930    0.78380    1.000
    N22      N        0.91860    0.25360    0.72690    1.000
    N23      N        0.50260    0.66660    0.99620    1.000
    N24      N        0.51430    0.62400    0.26300    1.000
    C79      C        0.63070    0.76510    0.90360    1.000
    H73      H        0.63050    0.73800    0.98930    1.000
    C80      C        0.58140    0.79390    0.65460    1.000
    H74      H        0.54600    0.78780    0.56490    1.000
    C81      C        0.63160    0.84470    0.65750    1.000
    H75      H        0.63060    0.87100    0.57000    1.000
    C82      C        0.68140    0.81520    0.91570    1.000
    H76      H        0.71450    0.82140    0.00880    1.000
    C83      C        0.68390    0.85650    0.79220    1.000
    C84      C        0.74070    0.91090    0.80320    1.000
    H77      H        0.78890    0.89060    0.83290    1.000
    H78      H        0.73440    0.94060    0.88690    1.000
    C85      C        0.74060    0.95110    0.66560    1.000
    H79      H        0.74650    0.92190    0.58070    1.000
    H80      H        0.69320    0.97280    0.63670    1.000
    C86      C        0.91680    0.04160    0.64780    1.000
    H81      H        0.95910    0.03350    0.60880    1.000
    C87      C        0.84960    0.10920    0.76960    1.000
    H82      H        0.84440    0.14890    0.82100    1.000
    C88      C        0.86390    0.99270    0.63050    1.000
    H83      H        0.87120    0.95270    0.58220    1.000
    C89      C        0.79330    0.06350    0.75250    1.000
    H84      H        0.75040    0.07390    0.78730    1.000
    C90      C        0.79990    0.00330    0.68520    1.000
    C91      C        0.99730    0.15240    0.38200    1.000
    N25      N        0.91120    0.09930    0.71620    1.000
    N26      N        0.58140    0.75360    0.77310    1.000
    N27      N        0.99740    0.16660    0.50380    1.000
    N28      N        0.98570    0.12400    0.23700    1.000
    C92      C        0.13070    0.26510    0.90360    1.000
    H85      H        0.13050    0.23800    0.98930    1.000
    C93      C        0.08140    0.29390    0.65460    1.000
    H86      H        0.04600    0.28780    0.56490    1.000
    C94      C        0.13160    0.34470    0.65750    1.000
    H87      H        0.13060    0.37100    0.57000    1.000
    C95      C        0.18140    0.31520    0.91570    1.000
    H88      H        0.21450    0.32140    0.00880    1.000
    C96      C        0.18390    0.35650    0.79220    1.000
    C97      C        0.24070    0.41090    0.80320    1.000
    H89      H        0.28890    0.39060    0.83290    1.000
    H90      H        0.23440    0.44060    0.88690    1.000
    C98      C        0.24060    0.45110    0.66560    1.000
    H91      H        0.24650    0.42190    0.58070    1.000
    H92      H        0.19320    0.47280    0.63670    1.000
    C99      C        0.41680    0.54160    0.64780    1.000
    H93      H        0.45910    0.53350    0.60880    1.000
    C100     C        0.34960    0.60920    0.76960    1.000
    H94      H        0.34440    0.64890    0.82100    1.000
    C101     C        0.36390    0.49270    0.63050    1.000
    H95      H        0.37120    0.45270    0.58220    1.000
    C102     C        0.29330    0.56350    0.75250    1.000
    H96      H        0.25040    0.57390    0.78730    1.000
    C103     C        0.29990    0.50330    0.68520    1.000
    C104     C        0.49730    0.65240    0.38200    1.000
    N29      N        0.41120    0.59930    0.71620    1.000
    N30      N        0.08140    0.25360    0.77310    1.000
    N31      N        0.49740    0.66660    0.50380    1.000
    N32      N        0.48570    0.62400    0.23700    1.000
    Zn3      Zn       0.00000    0.17488    0.75000    1.000
    Zn4      Zn       0.50000    0.67488    0.75000    1.000
