# CIF file generated by openbabel 3.1.0, see https://openbabel.org
data_I
_chemical_name_common 'IFENOY02_clean'
_cell_length_a 26.4573
_cell_length_b 26.4573
_cell_length_c 5.2854
_cell_angle_alpha 90
_cell_angle_beta 90
_cell_angle_gamma 90
_space_group_name_H-M_alt 'P 1'
_space_group_name_Hall 'P 1'
loop_
    _symmetry_equiv_pos_as_xyz
    x,y,z
loop_
    _atom_site_label
    _atom_site_type_symbol
    _atom_site_fract_x
    _atom_site_fract_y
    _atom_site_fract_z
    _atom_site_occupancy
    Zn1      Zn       0.28515    0.77380    0.08418    1.000
    H2       H        0.39280    0.79490    0.85910    1.000
    H3       H        0.32080    0.68730    0.47570    1.000
    H4       H        0.83030    0.12220    0.31350    1.000
    H5       H        0.87890    0.06430    0.52170    1.000
    H6       H        0.46300    0.55190    0.90390    1.000
    H7       H        0.49910    0.59930    0.59560    1.000
    H8       H        0.49370    0.66770    0.28010    1.000
    H9       H        0.47030    0.83080    0.89050    1.000
    H10      H        0.55050    0.85870    0.76480    1.000
    H11      H        0.59600    0.71430    0.72490    1.000
    H12      H        0.51510    0.68820    0.85160    1.000
    C13      C        0.39596    0.76843    0.97400    1.000
    C14      C        0.37810    0.71248    0.25890    1.000
    C15      C        0.35494    0.68328    0.43880    1.000
    C16      C        0.38437    0.64691    0.56620    1.000
    C17      C        0.86388    0.11769    0.26670    1.000
    C18      C        0.89274    0.08330    0.39070    1.000
    C19      C        0.44380    0.57629    0.82120    1.000
    C20      C        0.46530    0.60429    0.63680    1.000
    C21      C        0.43659    0.64149    0.50490    1.000
    C22      C        0.45972    0.67170    0.32080    1.000
    C23      C        0.43037    0.70749    0.20240    1.000
    C24      C        0.48796    0.75835    0.91680    1.000
    C25      C        0.49630    0.80770    0.86800    1.000
    C26      C        0.54330    0.82450    0.78400    1.000
    C27      C        0.58069    0.78551    0.72630    1.000
    C28      C        0.57110    0.73820    0.75840    1.000
    C29      C        0.52310    0.72240    0.84410    1.000
    C30      C        0.63170    0.80090    0.62500    1.000
    N31      N        0.35842    0.75120    0.10770    1.000
    N32      N        0.44014    0.74393    0.01930    1.000
    O33      O        0.25349    0.77667    0.40950    1.000
    O34      O        0.66521    0.77711    0.62000    1.000
    O35      O        0.63560    0.85270    0.59600    1.000
    H36      H        0.31447    0.25407    0.09050    1.000
    Zn37     Zn       0.78515    0.27380    0.58418    1.000
    H38      H        0.89280    0.29490    0.35910    1.000
    H39      H        0.82080    0.18730    0.97570    1.000
    H40      H        0.33030    0.62220    0.81350    1.000
    H41      H        0.37890    0.56430    0.02170    1.000
    H42      H        0.96300    0.05190    0.40390    1.000
    H43      H        0.99910    0.09930    0.09560    1.000
    H44      H        0.99370    0.16770    0.78010    1.000
    H45      H        0.97030    0.33080    0.39050    1.000
    H46      H        0.05050    0.35870    0.26480    1.000
    H47      H        0.09600    0.21430    0.22490    1.000
    H48      H        0.01510    0.18820    0.35160    1.000
    C49      C        0.89596    0.26843    0.47400    1.000
    C50      C        0.87810    0.21248    0.75890    1.000
    C51      C        0.85494    0.18328    0.93880    1.000
    C52      C        0.88437    0.14691    0.06620    1.000
    C53      C        0.36388    0.61769    0.76670    1.000
    C54      C        0.39274    0.58330    0.89070    1.000
    C55      C        0.94380    0.07629    0.32120    1.000
    C56      C        0.96530    0.10429    0.13680    1.000
    C57      C        0.93659    0.14149    0.00490    1.000
    C58      C        0.95972    0.17170    0.82080    1.000
    C59      C        0.93037    0.20749    0.70240    1.000
    C60      C        0.98796    0.25835    0.41680    1.000
    C61      C        0.99630    0.30770    0.36800    1.000
    C62      C        0.04330    0.32450    0.28400    1.000
    C63      C        0.08069    0.28551    0.22630    1.000
    C64      C        0.07110    0.23820    0.25840    1.000
    C65      C        0.02310    0.22240    0.34410    1.000
    C66      C        0.13170    0.30090    0.12500    1.000
    N67      N        0.85842    0.25120    0.60770    1.000
    N68      N        0.94014    0.24393    0.51930    1.000
    O69      O        0.75349    0.27667    0.90950    1.000
    O70      O        0.16521    0.27711    0.12000    1.000
    O71      O        0.13560    0.35270    0.09600    1.000
    H72      H        0.81447    0.75407    0.59050    1.000
    Zn73     Zn       0.71485    0.22620    0.08418    1.000
    H74      H        0.60720    0.20510    0.85910    1.000
    H75      H        0.67920    0.31270    0.47570    1.000
    H76      H        0.16970    0.87780    0.31350    1.000
    H77      H        0.12110    0.93570    0.52170    1.000
    H78      H        0.53700    0.44810    0.90390    1.000
    H79      H        0.50090    0.40070    0.59560    1.000
    H80      H        0.50630    0.33230    0.28010    1.000
    H81      H        0.52970    0.16920    0.89050    1.000
    H82      H        0.44950    0.14130    0.76480    1.000
    H83      H        0.40400    0.28570    0.72490    1.000
    H84      H        0.48490    0.31180    0.85160    1.000
    C85      C        0.60404    0.23157    0.97400    1.000
    C86      C        0.62190    0.28752    0.25890    1.000
    C87      C        0.64506    0.31672    0.43880    1.000
    C88      C        0.61563    0.35309    0.56620    1.000
    C89      C        0.13612    0.88231    0.26670    1.000
    C90      C        0.10726    0.91670    0.39070    1.000
    C91      C        0.55620    0.42371    0.82120    1.000
    C92      C        0.53470    0.39571    0.63680    1.000
    C93      C        0.56341    0.35851    0.50490    1.000
    C94      C        0.54028    0.32830    0.32080    1.000
    C95      C        0.56963    0.29251    0.20240    1.000
    C96      C        0.51204    0.24165    0.91680    1.000
    C97      C        0.50370    0.19230    0.86800    1.000
    C98      C        0.45670    0.17550    0.78400    1.000
    C99      C        0.41931    0.21449    0.72630    1.000
    C100     C        0.42890    0.26180    0.75840    1.000
    C101     C        0.47690    0.27760    0.84410    1.000
    C102     C        0.36830    0.19910    0.62500    1.000
    N103     N        0.64158    0.24880    0.10770    1.000
    N104     N        0.55986    0.25607    0.01930    1.000
    O105     O        0.74651    0.22333    0.40950    1.000
    O106     O        0.33479    0.22289    0.62000    1.000
    O107     O        0.36440    0.14730    0.59600    1.000
    H108     H        0.68553    0.74593    0.09050    1.000
    Zn109    Zn       0.21485    0.72620    0.58418    1.000
    H110     H        0.10720    0.70510    0.35910    1.000
    H111     H        0.17920    0.81270    0.97570    1.000
    H112     H        0.66970    0.37780    0.81350    1.000
    H113     H        0.62110    0.43570    0.02170    1.000
    H114     H        0.03700    0.94810    0.40390    1.000
    H115     H        0.00090    0.90070    0.09560    1.000
    H116     H        0.00630    0.83230    0.78010    1.000
    H117     H        0.02970    0.66920    0.39050    1.000
    H118     H        0.94950    0.64130    0.26480    1.000
    H119     H        0.90400    0.78570    0.22490    1.000
    H120     H        0.98490    0.81180    0.35160    1.000
    C121     C        0.10404    0.73157    0.47400    1.000
    C122     C        0.12190    0.78752    0.75890    1.000
    C123     C        0.14506    0.81672    0.93880    1.000
    C124     C        0.11563    0.85309    0.06620    1.000
    C125     C        0.63612    0.38231    0.76670    1.000
    C126     C        0.60726    0.41670    0.89070    1.000
    C127     C        0.05620    0.92371    0.32120    1.000
    C128     C        0.03470    0.89571    0.13680    1.000
    C129     C        0.06341    0.85851    0.00490    1.000
    C130     C        0.04028    0.82830    0.82080    1.000
    C131     C        0.06963    0.79251    0.70240    1.000
    C132     C        0.01204    0.74165    0.41680    1.000
    C133     C        0.00370    0.69230    0.36800    1.000
    C134     C        0.95670    0.67550    0.28400    1.000
    C135     C        0.91931    0.71449    0.22630    1.000
    C136     C        0.92890    0.76180    0.25840    1.000
    C137     C        0.97690    0.77760    0.34410    1.000
    C138     C        0.86830    0.69910    0.12500    1.000
    N139     N        0.14158    0.74880    0.60770    1.000
    N140     N        0.05986    0.75607    0.51930    1.000
    O141     O        0.24651    0.72333    0.90950    1.000
    O142     O        0.83479    0.72289    0.12000    1.000
    O143     O        0.86440    0.64730    0.09600    1.000
    H144     H        0.18553    0.24593    0.59050    1.000
    Zn145    Zn       0.77380    0.71485    0.91582    1.000
    H146     H        0.79490    0.60720    0.14090    1.000
    H147     H        0.68730    0.67920    0.52430    1.000
    H148     H        0.12220    0.16970    0.68650    1.000
    H149     H        0.06430    0.12110    0.47830    1.000
    H150     H        0.55190    0.53700    0.09610    1.000
    H151     H        0.59930    0.50090    0.40440    1.000
    H152     H        0.66770    0.50630    0.71990    1.000
    H153     H        0.83080    0.52970    0.10950    1.000
    H154     H        0.85870    0.44950    0.23520    1.000
    H155     H        0.71430    0.40400    0.27510    1.000
    H156     H        0.68820    0.48490    0.14840    1.000
    C157     C        0.76843    0.60404    0.02600    1.000
    C158     C        0.71248    0.62190    0.74110    1.000
    C159     C        0.68328    0.64506    0.56120    1.000
    C160     C        0.64691    0.61563    0.43380    1.000
    C161     C        0.11769    0.13612    0.73330    1.000
    C162     C        0.08330    0.10726    0.60930    1.000
    C163     C        0.57629    0.55620    0.17880    1.000
    C164     C        0.60429    0.53470    0.36320    1.000
    C165     C        0.64149    0.56341    0.49510    1.000
    C166     C        0.67170    0.54028    0.67920    1.000
    C167     C        0.70749    0.56963    0.79760    1.000
    C168     C        0.75835    0.51204    0.08320    1.000
    C169     C        0.80770    0.50370    0.13200    1.000
    C170     C        0.82450    0.45670    0.21600    1.000
    C171     C        0.78551    0.41931    0.27370    1.000
    C172     C        0.73820    0.42890    0.24160    1.000
    C173     C        0.72240    0.47690    0.15590    1.000
    C174     C        0.80090    0.36830    0.37500    1.000
    N175     N        0.75120    0.64158    0.89230    1.000
    N176     N        0.74393    0.55986    0.98070    1.000
    O177     O        0.77667    0.74651    0.59050    1.000
    O178     O        0.77711    0.33479    0.38000    1.000
    O179     O        0.85270    0.36440    0.40400    1.000
    H180     H        0.25407    0.68553    0.90950    1.000
    Zn181    Zn       0.27380    0.21485    0.41582    1.000
    H182     H        0.29490    0.10720    0.64090    1.000
    H183     H        0.18730    0.17920    0.02430    1.000
    H184     H        0.62220    0.66970    0.18650    1.000
    H185     H        0.56430    0.62110    0.97830    1.000
    H186     H        0.05190    0.03700    0.59610    1.000
    H187     H        0.09930    0.00090    0.90440    1.000
    H188     H        0.16770    0.00630    0.21990    1.000
    H189     H        0.33080    0.02970    0.60950    1.000
    H190     H        0.35870    0.94950    0.73520    1.000
    H191     H        0.21430    0.90400    0.77510    1.000
    H192     H        0.18820    0.98490    0.64840    1.000
    C193     C        0.26843    0.10404    0.52600    1.000
    C194     C        0.21248    0.12190    0.24110    1.000
    C195     C        0.18328    0.14506    0.06120    1.000
    C196     C        0.14691    0.11563    0.93380    1.000
    C197     C        0.61769    0.63612    0.23330    1.000
    C198     C        0.58330    0.60726    0.10930    1.000
    C199     C        0.07629    0.05620    0.67880    1.000
    C200     C        0.10429    0.03470    0.86320    1.000
    C201     C        0.14149    0.06341    0.99510    1.000
    C202     C        0.17170    0.04028    0.17920    1.000
    C203     C        0.20749    0.06963    0.29760    1.000
    C204     C        0.25835    0.01204    0.58320    1.000
    C205     C        0.30770    0.00370    0.63200    1.000
    C206     C        0.32450    0.95670    0.71600    1.000
    C207     C        0.28551    0.91931    0.77370    1.000
    C208     C        0.23820    0.92890    0.74160    1.000
    C209     C        0.22240    0.97690    0.65590    1.000
    C210     C        0.30090    0.86830    0.87500    1.000
    N211     N        0.25120    0.14158    0.39230    1.000
    N212     N        0.24393    0.05986    0.48070    1.000
    O213     O        0.27667    0.24651    0.09050    1.000
    O214     O        0.27711    0.83479    0.88000    1.000
    O215     O        0.35270    0.86440    0.90400    1.000
    H216     H        0.75407    0.18553    0.40950    1.000
    Zn217    Zn       0.22620    0.28515    0.91582    1.000
    H218     H        0.20510    0.39280    0.14090    1.000
    H219     H        0.31270    0.32080    0.52430    1.000
    H220     H        0.87780    0.83030    0.68650    1.000
    H221     H        0.93570    0.87890    0.47830    1.000
    H222     H        0.44810    0.46300    0.09610    1.000
    H223     H        0.40070    0.49910    0.40440    1.000
    H224     H        0.33230    0.49370    0.71990    1.000
    H225     H        0.16920    0.47030    0.10950    1.000
    H226     H        0.14130    0.55050    0.23520    1.000
    H227     H        0.28570    0.59600    0.27510    1.000
    H228     H        0.31180    0.51510    0.14840    1.000
    C229     C        0.23157    0.39596    0.02600    1.000
    C230     C        0.28752    0.37810    0.74110    1.000
    C231     C        0.31672    0.35494    0.56120    1.000
    C232     C        0.35309    0.38437    0.43380    1.000
    C233     C        0.88231    0.86388    0.73330    1.000
    C234     C        0.91670    0.89274    0.60930    1.000
    C235     C        0.42371    0.44380    0.17880    1.000
    C236     C        0.39571    0.46530    0.36320    1.000
    C237     C        0.35851    0.43659    0.49510    1.000
    C238     C        0.32830    0.45972    0.67920    1.000
    C239     C        0.29251    0.43037    0.79760    1.000
    C240     C        0.24165    0.48796    0.08320    1.000
    C241     C        0.19230    0.49630    0.13200    1.000
    C242     C        0.17550    0.54330    0.21600    1.000
    C243     C        0.21449    0.58069    0.27370    1.000
    C244     C        0.26180    0.57110    0.24160    1.000
    C245     C        0.27760    0.52310    0.15590    1.000
    C246     C        0.19910    0.63170    0.37500    1.000
    N247     N        0.24880    0.35842    0.89230    1.000
    N248     N        0.25607    0.44014    0.98070    1.000
    O249     O        0.22333    0.25349    0.59050    1.000
    O250     O        0.22289    0.66521    0.38000    1.000
    O251     O        0.14730    0.63560    0.40400    1.000
    H252     H        0.74593    0.31447    0.90950    1.000
    Zn253    Zn       0.72620    0.78515    0.41582    1.000
    H254     H        0.70510    0.89280    0.64090    1.000
    H255     H        0.81270    0.82080    0.02430    1.000
    H256     H        0.37780    0.33030    0.18650    1.000
    H257     H        0.43570    0.37890    0.97830    1.000
    H258     H        0.94810    0.96300    0.59610    1.000
    H259     H        0.90070    0.99910    0.90440    1.000
    H260     H        0.83230    0.99370    0.21990    1.000
    H261     H        0.66920    0.97030    0.60950    1.000
    H262     H        0.64130    0.05050    0.73520    1.000
    H263     H        0.78570    0.09600    0.77510    1.000
    H264     H        0.81180    0.01510    0.64840    1.000
    C265     C        0.73157    0.89596    0.52600    1.000
    C266     C        0.78752    0.87810    0.24110    1.000
    C267     C        0.81672    0.85494    0.06120    1.000
    C268     C        0.85309    0.88437    0.93380    1.000
    C269     C        0.38231    0.36388    0.23330    1.000
    C270     C        0.41670    0.39274    0.10930    1.000
    C271     C        0.92371    0.94380    0.67880    1.000
    C272     C        0.89571    0.96530    0.86320    1.000
    C273     C        0.85851    0.93659    0.99510    1.000
    C274     C        0.82830    0.95972    0.17920    1.000
    C275     C        0.79251    0.93037    0.29760    1.000
    C276     C        0.74165    0.98796    0.58320    1.000
    C277     C        0.69230    0.99630    0.63200    1.000
    C278     C        0.67550    0.04330    0.71600    1.000
    C279     C        0.71449    0.08069    0.77370    1.000
    C280     C        0.76180    0.07110    0.74160    1.000
    C281     C        0.77760    0.02310    0.65590    1.000
    C282     C        0.69910    0.13170    0.87500    1.000
    N283     N        0.74880    0.85842    0.39230    1.000
    N284     N        0.75607    0.94014    0.48070    1.000
    O285     O        0.72333    0.75349    0.09050    1.000
    O286     O        0.72289    0.16521    0.88000    1.000
    O287     O        0.64730    0.13560    0.90400    1.000
    H288     H        0.24593    0.81447    0.40950    1.000
