# CIF file generated by openbabel 3.1.0, see https://openbabel.org
data_I
_chemical_name_common 'image0'
_cell_length_a 10.8724
_cell_length_b 15.6218
_cell_length_c 10.9924
_cell_angle_alpha 90
_cell_angle_beta 100.702
_cell_angle_gamma 90
_space_group_name_H-M_alt 'P 1'
_space_group_name_Hall 'P 1'
loop_
    _symmetry_equiv_pos_as_xyz
    x,y,z
loop_
    _atom_site_label
    _atom_site_type_symbol
    _atom_site_fract_x
    _atom_site_fract_y
    _atom_site_fract_z
    _atom_site_occupancy
    Tb1      Tb       0.14243    0.10175    0.39562    1.000
    O1       O        0.93500    0.06200    0.33540    1.000
    O2       O        0.54890    0.33610    0.05880    1.000
    O3       O        0.74230    0.29880    0.05300    1.000
    O4       O        0.28900    0.16990    0.28520    1.000
    O5       O        0.36500    0.06460    0.40680    1.000
    O6       O        0.82820    0.01090    0.47320    1.000
    C1       C        0.83780    0.05610    0.38140    1.000
    C2       C        0.72510    0.10790    0.32350    1.000
    C3       C        0.73650    0.17280    0.24040    1.000
    H1       H        0.81440    0.18490    0.22110    1.000
    C4       C        0.60770    0.09010    0.35330    1.000
    H2       H        0.59960    0.04690    0.40930    1.000
    C5       C        0.50350    0.13730    0.29880    1.000
    C6       C        0.63270    0.21970    0.18570    1.000
    C7       C        0.51720    0.20180    0.21560    1.000
    H3       H        0.44760    0.23360    0.17930    1.000
    C8       C        0.64290    0.28970    0.09530    1.000
    C9       C        0.37730    0.12260    0.33140    1.000
    Tb2      Tb       0.35757    0.60175    0.10438    1.000
    O7       O        0.56500    0.56200    0.16460    1.000
    O8       O        0.95110    0.83610    0.44120    1.000
    O9       O        0.75770    0.79880    0.44700    1.000
    O10      O        0.21100    0.66990    0.21480    1.000
    O11      O        0.13500    0.56460    0.09320    1.000
    O12      O        0.67180    0.51090    0.02680    1.000
    C10      C        0.66220    0.55610    0.11860    1.000
    C11      C        0.77490    0.60790    0.17650    1.000
    C12      C        0.76350    0.67280    0.25960    1.000
    H4       H        0.68560    0.68490    0.27890    1.000
    C13      C        0.89230    0.59010    0.14670    1.000
    H5       H        0.90040    0.54690    0.09070    1.000
    C14      C        0.99650    0.63730    0.20120    1.000
    C15      C        0.86730    0.71970    0.31430    1.000
    C16      C        0.98280    0.70180    0.28440    1.000
    H6       H        0.05240    0.73360    0.32070    1.000
    C17      C        0.85710    0.78970    0.40470    1.000
    C18      C        0.12270    0.62260    0.16860    1.000
    Tb3      Tb       0.85757    0.89825    0.60438    1.000
    O13      O        0.06500    0.93800    0.66460    1.000
    O14      O        0.45110    0.66390    0.94120    1.000
    O15      O        0.25770    0.70120    0.94700    1.000
    O16      O        0.71100    0.83010    0.71480    1.000
    O17      O        0.63500    0.93540    0.59320    1.000
    O18      O        0.17180    0.98910    0.52680    1.000
    C19      C        0.16220    0.94390    0.61860    1.000
    C20      C        0.27490    0.89210    0.67650    1.000
    C21      C        0.26350    0.82720    0.75960    1.000
    H7       H        0.18560    0.81510    0.77890    1.000
    C22      C        0.39230    0.90990    0.64670    1.000
    H8       H        0.40040    0.95310    0.59070    1.000
    C23      C        0.49650    0.86270    0.70120    1.000
    C24      C        0.36730    0.78030    0.81430    1.000
    C25      C        0.48280    0.79820    0.78440    1.000
    H9       H        0.55240    0.76640    0.82070    1.000
    C26      C        0.35710    0.71030    0.90470    1.000
    C27      C        0.62270    0.87740    0.66860    1.000
    Tb4      Tb       0.64243    0.39825    0.89562    1.000
    O19      O        0.43500    0.43800    0.83540    1.000
    O20      O        0.04890    0.16390    0.55880    1.000
    O21      O        0.24230    0.20120    0.55300    1.000
    O22      O        0.78900    0.33010    0.78520    1.000
    O23      O        0.86500    0.43540    0.90680    1.000
    O24      O        0.32820    0.48910    0.97320    1.000
    C28      C        0.33780    0.44390    0.88140    1.000
    C29      C        0.22510    0.39210    0.82350    1.000
    C30      C        0.23650    0.32720    0.74040    1.000
    H10      H        0.31440    0.31510    0.72110    1.000
    C31      C        0.10770    0.40990    0.85330    1.000
    H11      H        0.09960    0.45310    0.90930    1.000
    C32      C        0.00350    0.36270    0.79880    1.000
    C33      C        0.13270    0.28030    0.68570    1.000
    C34      C        0.01720    0.29820    0.71560    1.000
    H12      H        0.94760    0.26640    0.67930    1.000
    C35      C        0.14290    0.21030    0.59530    1.000
    C36      C        0.87730    0.37740    0.83140    1.000
