# CIF file generated by openbabel 3.1.0, see https://openbabel.org
data_I
_chemical_name_common 'FAKLIO_clean'
_cell_length_a 10.8532
_cell_length_b 13.0158
_cell_length_c 13.0158
_cell_angle_alpha 120
_cell_angle_beta 90
_cell_angle_gamma 90
_space_group_name_H-M_alt 'P 1'
_space_group_name_Hall 'P 1'
loop_
    _symmetry_equiv_pos_as_xyz
    x,y,z
loop_
    _atom_site_label
    _atom_site_type_symbol
    _atom_site_fract_x
    _atom_site_fract_y
    _atom_site_fract_z
    _atom_site_occupancy
    Mn1      Mn       0.00000    0.33333    0.66666    1.000
    Mn2      Mn       0.00000    0.66667    0.33334    1.000
    H1       H        0.60460    0.61000    0.18020    1.000
    H2       H        0.60460    0.57020    0.39000    1.000
    H3       H        0.60460    0.81980    0.42980    1.000
    H4       H        0.39540    0.57020    0.18020    1.000
    H5       H        0.39540    0.81980    0.39000    1.000
    H6       H        0.39540    0.61000    0.42980    1.000
    H7       H        0.39540    0.39000    0.81980    1.000
    H8       H        0.39540    0.42980    0.61000    1.000
    H9       H        0.39540    0.18020    0.57020    1.000
    H10      H        0.60460    0.42980    0.81980    1.000
    H11      H        0.60460    0.18020    0.61000    1.000
    H12      H        0.60460    0.39000    0.57020    1.000
    C1       C        0.82580    0.50350    0.89500    1.000
    C2       C        0.56230    0.56500    0.10700    1.000
    C3       C        0.82580    0.39150    0.49650    1.000
    C4       C        0.56230    0.54200    0.43500    1.000
    C5       C        0.82580    0.10500    0.60850    1.000
    C6       C        0.56230    0.89300    0.45800    1.000
    C7       C        0.17420    0.39150    0.89500    1.000
    C8       C        0.43770    0.54200    0.10700    1.000
    C9       C        0.17420    0.10500    0.49650    1.000
    C10      C        0.43770    0.89300    0.43500    1.000
    C11      C        0.17420    0.50350    0.60850    1.000
    C12      C        0.43770    0.56500    0.45800    1.000
    C13      C        0.17420    0.49650    0.10500    1.000
    C14      C        0.43770    0.43500    0.89300    1.000
    C15      C        0.17420    0.60850    0.50350    1.000
    C16      C        0.43770    0.45800    0.56500    1.000
    C17      C        0.17420    0.89500    0.39150    1.000
    C18      C        0.43770    0.10700    0.54200    1.000
    C19      C        0.82580    0.60850    0.10500    1.000
    C20      C        0.56230    0.45800    0.89300    1.000
    C21      C        0.82580    0.89500    0.50350    1.000
    C22      C        0.56230    0.10700    0.56500    1.000
    C23      C        0.82580    0.49650    0.39150    1.000
    C24      C        0.56230    0.43500    0.54200    1.000
    C25      C        0.76050    0.54600    0.00000    1.000
    C26      C        0.62640    0.52230    0.00000    1.000
    C27      C        0.76050    0.45400    0.45400    1.000
    C28      C        0.62640    0.47770    0.47770    1.000
    C29      C        0.76050    0.00000    0.54600    1.000
    C30      C        0.62640    0.00000    0.52230    1.000
    C31      C        0.23950    0.45400    0.00000    1.000
    C32      C        0.37360    0.47770    0.00000    1.000
    C33      C        0.23950    0.00000    0.45400    1.000
    C34      C        0.37360    0.00000    0.47770    1.000
    C35      C        0.23950    0.54600    0.54600    1.000
    C36      C        0.37360    0.52230    0.52230    1.000
    N1       N        0.88000    0.46760    0.80700    1.000
    N2       N        0.88000    0.33940    0.53240    1.000
    N3       N        0.88000    0.19300    0.66060    1.000
    N4       N        0.12000    0.33940    0.80700    1.000
    N5       N        0.12000    0.19300    0.53240    1.000
    N6       N        0.12000    0.46760    0.66060    1.000
    N7       N        0.12000    0.53240    0.19300    1.000
    N8       N        0.12000    0.66060    0.46760    1.000
    N9       N        0.12000    0.80700    0.33940    1.000
    N10      N        0.88000    0.66060    0.19300    1.000
    N11      N        0.88000    0.80700    0.46760    1.000
    N12      N        0.88000    0.53240    0.33940    1.000
