# CIF file generated by openbabel 3.1.0, see https://openbabel.org
data_I
_chemical_name_common 'image0'
_cell_length_a 9.0931
_cell_length_b 9.0931
_cell_length_c 38.333
_cell_angle_alpha 90
_cell_angle_beta 90
_cell_angle_gamma 90
_space_group_name_H-M_alt 'P 1'
_space_group_name_Hall 'P 1'
loop_
    _symmetry_equiv_pos_as_xyz
    x,y,z
loop_
    _atom_site_label
    _atom_site_type_symbol
    _atom_site_fract_x
    _atom_site_fract_y
    _atom_site_fract_z
    _atom_site_occupancy
    Zn1      Zn       0.75085    0.25163    0.91627    1.000
    C1       C        0.51973    0.18208    0.86874    1.000
    C2       C        0.75007    0.00606    0.96390    1.000
    C3       C        0.70308    0.50802    0.95288    1.000
    O1       O        0.65221    0.44284    0.92489    1.000
    O2       O        0.66144    0.19856    0.87168    1.000
    O3       O        0.46237    0.23184    0.84005    1.000
    O4       O        0.69661    0.13509    0.95678    1.000
    O5       O        0.64851    0.63830    0.95946    1.000
    O6       O        0.69596    0.94501    0.99154    1.000
    O7       O        0.44448    0.11958    0.89167    1.000
    O8       O        0.84857    0.94639    0.94573    1.000
    O9       O        0.79650    0.44878    0.97191    1.000
    Zn2      Zn       0.24915    0.74837    0.41627    1.000
    C4       C        0.48027    0.81792    0.36874    1.000
    C5       C        0.24993    0.99394    0.46390    1.000
    C6       C        0.29692    0.49198    0.45288    1.000
    O10      O        0.34779    0.55716    0.42489    1.000
    O11      O        0.33856    0.80144    0.37168    1.000
    O12      O        0.53763    0.76816    0.34005    1.000
    O13      O        0.30339    0.86491    0.45678    1.000
    O14      O        0.35149    0.36170    0.45946    1.000
    O15      O        0.30404    0.05499    0.49154    1.000
    O16      O        0.55552    0.88042    0.39167    1.000
    O17      O        0.15143    0.05361    0.44573    1.000
    O18      O        0.20350    0.55122    0.47191    1.000
    Zn3      Zn       0.24837    0.25085    0.16627    1.000
    C7       C        0.31792    0.01973    0.11874    1.000
    C8       C        0.49394    0.25007    0.21390    1.000
    C9       C        0.99198    0.20308    0.20288    1.000
    O19      O        0.05716    0.15221    0.17489    1.000
    O20      O        0.30144    0.16144    0.12168    1.000
    O21      O        0.26816    0.96237    0.09005    1.000
    O22      O        0.36491    0.19661    0.20678    1.000
    O23      O        0.86170    0.14851    0.20946    1.000
    O24      O        0.55499    0.19596    0.24154    1.000
    O25      O        0.38042    0.94448    0.14167    1.000
    O26      O        0.55361    0.34857    0.19573    1.000
    O27      O        0.05122    0.29650    0.22191    1.000
    Zn4      Zn       0.75163    0.74915    0.66627    1.000
    C10      C        0.68208    0.98027    0.61874    1.000
    C11      C        0.50606    0.74993    0.71390    1.000
    C12      C        0.00802    0.79692    0.70288    1.000
    O28      O        0.94284    0.84779    0.67489    1.000
    O29      O        0.69856    0.83856    0.62168    1.000
    O30      O        0.73184    0.03763    0.59005    1.000
    O31      O        0.63509    0.80339    0.70678    1.000
    O32      O        0.13830    0.85149    0.70946    1.000
    O33      O        0.44501    0.80404    0.74154    1.000
    O34      O        0.61958    0.05552    0.64167    1.000
    O35      O        0.44639    0.65143    0.69573    1.000
    O36      O        0.94878    0.70350    0.72191    1.000
    Zn5      Zn       0.74915    0.75163    0.33373    1.000
    C13      C        0.98027    0.68208    0.38126    1.000
    C14      C        0.74993    0.50606    0.28610    1.000
    C15      C        0.79692    0.00802    0.29712    1.000
    O37      O        0.84779    0.94284    0.32511    1.000
    O38      O        0.83856    0.69856    0.37832    1.000
    O39      O        0.03763    0.73184    0.40995    1.000
    O40      O        0.80339    0.63509    0.29322    1.000
    O41      O        0.85149    0.13830    0.29054    1.000
    O42      O        0.80404    0.44501    0.25846    1.000
    O43      O        0.05552    0.61958    0.35833    1.000
    O44      O        0.65143    0.44639    0.30427    1.000
    O45      O        0.70350    0.94878    0.27809    1.000
    Zn6      Zn       0.25085    0.24837    0.83373    1.000
    C16      C        0.01973    0.31792    0.88126    1.000
    C17      C        0.25007    0.49394    0.78610    1.000
    C18      C        0.20308    0.99198    0.79712    1.000
    O46      O        0.15221    0.05716    0.82511    1.000
    O47      O        0.16144    0.30144    0.87832    1.000
    O48      O        0.96237    0.26816    0.90995    1.000
    O49      O        0.19661    0.36491    0.79322    1.000
    O50      O        0.14851    0.86170    0.79054    1.000
    O51      O        0.19596    0.55499    0.75846    1.000
    O52      O        0.94448    0.38042    0.85833    1.000
    O53      O        0.34857    0.55361    0.80427    1.000
    O54      O        0.29650    0.05122    0.77809    1.000
    Zn7      Zn       0.25163    0.75085    0.08373    1.000
    C19      C        0.18208    0.51973    0.13126    1.000
    C20      C        0.00606    0.75007    0.03610    1.000
    C21      C        0.50802    0.70308    0.04712    1.000
    O55      O        0.44284    0.65221    0.07511    1.000
    O56      O        0.19856    0.66144    0.12832    1.000
    O57      O        0.23184    0.46237    0.15995    1.000
    O58      O        0.13509    0.69661    0.04322    1.000
    O59      O        0.63830    0.64851    0.04054    1.000
    O60      O        0.94501    0.69596    0.00846    1.000
    O61      O        0.11958    0.44448    0.10833    1.000
    O62      O        0.94639    0.84857    0.05427    1.000
    O63      O        0.44878    0.79650    0.02809    1.000
    Zn8      Zn       0.74837    0.24915    0.58373    1.000
    C22      C        0.81792    0.48027    0.63126    1.000
    C23      C        0.99394    0.24993    0.53610    1.000
    C24      C        0.49198    0.29692    0.54712    1.000
    O64      O        0.55716    0.34779    0.57511    1.000
    O65      O        0.80144    0.33856    0.62832    1.000
    O66      O        0.76816    0.53763    0.65995    1.000
    O67      O        0.86491    0.30339    0.54322    1.000
    O68      O        0.36170    0.35149    0.54054    1.000
    O69      O        0.05499    0.30404    0.50846    1.000
    O70      O        0.88042    0.55552    0.60833    1.000
    O71      O        0.05361    0.15143    0.55427    1.000
    O72      O        0.55122    0.20350    0.52809    1.000
    Zn9      Zn       0.73805    0.73805    0.00000    1.000
    Zn10     Zn       0.26195    0.26195    0.50000    1.000
    Zn11     Zn       0.76195    0.23805    0.25000    1.000
    Zn12     Zn       0.23805    0.76195    0.75000    1.000
