# CIF file generated by openbabel 3.1.0, see https://openbabel.org
data_I
_chemical_name_common 'GIGWID01_clean'
_cell_length_a 8.9193
_cell_length_b 12.1268
_cell_length_c 16.7341
_cell_angle_alpha 90
_cell_angle_beta 90
_cell_angle_gamma 109.184
_space_group_name_H-M_alt 'P 1'
_space_group_name_Hall 'P 1'
loop_
    _symmetry_equiv_pos_as_xyz
    x,y,z
loop_
    _atom_site_label
    _atom_site_type_symbol
    _atom_site_fract_x
    _atom_site_fract_y
    _atom_site_fract_z
    _atom_site_occupancy
    Pr1      Pr       0.93168    0.95175    0.38329    1.000
    Pr2      Pr       0.43168    0.95175    0.11671    1.000
    Pr3      Pr       0.56832    0.04825    0.88329    1.000
    Pr4      Pr       0.06832    0.04825    0.61671    1.000
    H1       H        0.31870    0.64330    0.10110    1.000
    H2       H        0.90230    0.34910    0.69230    1.000
    H3       H        0.41260    0.72300    0.32170    1.000
    H4       H        0.81870    0.64330    0.39890    1.000
    H5       H        0.40230    0.34910    0.80770    1.000
    H6       H        0.50970    0.66430    0.92690    1.000
    H7       H        0.52890    0.71730    0.56880    1.000
    H8       H        0.20440    0.50470    0.41450    1.000
    H9       H        0.09250    0.52650    0.72430    1.000
    H10      H        0.47110    0.28270    0.43120    1.000
    H11      H        0.02890    0.71730    0.93120    1.000
    H12      H        0.82660    0.81610    0.16630    1.000
    H13      H        0.59770    0.65090    0.19230    1.000
    H14      H        0.88090    0.36400    0.03520    1.000
    H15      H        0.32660    0.81610    0.33370    1.000
    H16      H        0.87620    0.85980    0.98940    1.000
    H17      H        0.70440    0.50470    0.08550    1.000
    H18      H        0.79560    0.49530    0.58550    1.000
    H19      H        0.74240    0.79470    0.92890    1.000
    H20      H        0.90750    0.47350    0.27570    1.000
    H21      H        0.08740    0.27700    0.82170    1.000
    H22      H        0.58740    0.27700    0.67830    1.000
    H23      H        0.37260    0.53250    0.56830    1.000
    H24      H        0.09770    0.65090    0.30770    1.000
    H25      H        0.25760    0.20530    0.07110    1.000
    H26      H        0.99030    0.33570    0.42690    1.000
    H27      H        0.59250    0.52650    0.77570    1.000
    H28      H        0.75760    0.20530    0.42890    1.000
    H29      H        0.49030    0.33570    0.07310    1.000
    H30      H        0.12380    0.14020    0.01060    1.000
    H31      H        0.24240    0.79470    0.57110    1.000
    H32      H        0.87260    0.53250    0.93170    1.000
    H33      H        0.91260    0.72300    0.17830    1.000
    H34      H        0.11910    0.63600    0.96480    1.000
    H35      H        0.40750    0.47350    0.22430    1.000
    H36      H        0.62380    0.14020    0.48940    1.000
    H37      H        0.37620    0.85980    0.51060    1.000
    H38      H        0.62740    0.46750    0.43170    1.000
    H39      H        0.29560    0.49530    0.91450    1.000
    H40      H        0.97110    0.28270    0.06880    1.000
    H41      H        0.00970    0.66430    0.57310    1.000
    H42      H        0.68130    0.35670    0.89890    1.000
    H43      H        0.18130    0.35670    0.60110    1.000
    H44      H        0.17340    0.18390    0.83370    1.000
    H45      H        0.67340    0.18390    0.66630    1.000
    H46      H        0.12740    0.46750    0.06830    1.000
    H47      H        0.38090    0.36400    0.46480    1.000
    H48      H        0.61910    0.63600    0.53520    1.000
    C1       C        0.63040    0.60150    0.00718    1.000
    C2       C        0.26790    0.80110    0.94105    1.000
    C3       C        0.62030    0.50450    0.38383    1.000
    C4       C        0.26930    0.80490    0.51490    1.000
    C5       C        0.87630    0.30450    0.07469    1.000
    C6       C        0.65660    0.85570    0.02612    1.000
    C7       C        0.39690    0.38560    0.75941    1.000
    C8       C        0.87970    0.49550    0.88383    1.000
    C9       C        0.27600    0.33560    0.70635    1.000
    C10      C        0.12030    0.50450    0.11617    1.000
    C11      C        0.50640    0.59840    0.95623    1.000
    C12      C        0.62370    0.69550    0.57469    1.000
    C13      C        0.77600    0.33560    0.79365    1.000
    C14      C        0.36960    0.39850    0.99282    1.000
    C15      C        0.98900    0.50850    0.23989    1.000
    C16      C        0.49360    0.40160    0.04377    1.000
    C17      C        0.01100    0.49150    0.76011    1.000
    C18      C        0.23210    0.19890    0.44105    1.000
    C19      C        0.73460    0.60970    0.36420    1.000
    C20      C        0.90010    0.79360    0.20003    1.000
    C21      C        0.37630    0.30450    0.42531    1.000
    C22      C        0.00640    0.59840    0.54377    1.000
    C23      C        0.99570    0.45480    0.16795    1.000
    C24      C        0.37790    0.49710    0.94917    1.000
    C25      C        0.87790    0.49710    0.55083    1.000
    C26      C        0.76790    0.80110    0.55895    1.000
    C27      C        0.37970    0.49550    0.61617    1.000
    C28      C        0.23460    0.60970    0.13580    1.000
    C29      C        0.89690    0.38560    0.74059    1.000
    C30      C        0.09990    0.20640    0.79997    1.000
    C31      C        0.23070    0.19510    0.01490    1.000
    C32      C        0.59990    0.20640    0.70003    1.000
    C33      C        0.48900    0.50850    0.26011    1.000
    C34      C        0.60310    0.61440    0.24059    1.000
    C35      C        0.40010    0.79360    0.29997    1.000
    C36      C        0.99360    0.40160    0.45623    1.000
    C37      C        0.26540    0.39030    0.63580    1.000
    C38      C        0.10310    0.61440    0.25941    1.000
    C39      C        0.34340    0.14430    0.97388    1.000
    C40      C        0.22400    0.66440    0.20635    1.000
    C41      C        0.84340    0.14430    0.52612    1.000
    C42      C        0.51100    0.49150    0.73989    1.000
    C43      C        0.73210    0.19890    0.05895    1.000
    C44      C        0.13040    0.60150    0.49282    1.000
    C45      C        0.15660    0.85570    0.47388    1.000
    C46      C        0.05780    0.88960    0.20185    1.000
    C47      C        0.73070    0.19510    0.48510    1.000
    C48      C        0.50430    0.54520    0.66795    1.000
    C49      C        0.62210    0.50290    0.05083    1.000
    C50      C        0.86960    0.39850    0.50718    1.000
    C51      C        0.12210    0.50290    0.44917    1.000
    C52      C        0.55780    0.88960    0.29815    1.000
    C53      C        0.12370    0.69550    0.92531    1.000
    C54      C        0.76930    0.80490    0.98510    1.000
    C55      C        0.44220    0.11040    0.70185    1.000
    C56      C        0.76540    0.39030    0.86420    1.000
    C57      C        0.94220    0.11040    0.79815    1.000
    C58      C        0.72400    0.66440    0.29365    1.000
    C59      C        0.49570    0.45480    0.33205    1.000
    C60      C        0.00430    0.54520    0.83205    1.000
    O1       O        0.09670    0.81797    0.40835    1.000
    O2       O        0.79920    0.81756    0.48638    1.000
    O3       O        0.63140    0.94156    0.99269    1.000
    O4       O        0.90870    0.04627    0.73718    1.000
    O5       O        0.83930    0.77292    0.27998    1.000
    O6       O        0.29920    0.81756    0.01362    1.000
    O7       O        0.16000    0.13656    0.38417    1.000
    O8       O        0.90330    0.18203    0.59165    1.000
    O9       O        0.66000    0.13656    0.11583    1.000
    O10      O        0.76640    0.69598    0.01749    1.000
    O11      O        0.37450    0.35139    0.34777    1.000
    O12      O        0.33930    0.77292    0.22002    1.000
    O13      O        0.34000    0.86344    0.88417    1.000
    O14      O        0.40330    0.18203    0.90835    1.000
    O15      O        0.09130    0.95373    0.26282    1.000
    O16      O        0.36860    0.05844    0.00731    1.000
    O17      O        0.62550    0.64861    0.65223    1.000
    O18      O        0.13140    0.94156    0.50731    1.000
    O19      O        0.66070    0.22708    0.77998    1.000
    O20      O        0.35600    0.09990    0.64227    1.000
    O21      O        0.85600    0.09990    0.85773    1.000
    O22      O        0.86860    0.05844    0.49269    1.000
    O23      O        0.59670    0.81797    0.09165    1.000
    O24      O        0.23360    0.30402    0.98251    1.000
    O25      O        0.12550    0.64861    0.84777    1.000
    O26      O        0.84000    0.86344    0.61583    1.000
    O27      O        0.26640    0.69598    0.48251    1.000
    O28      O        0.20080    0.18244    0.51362    1.000
    O29      O        0.73360    0.30402    0.51749    1.000
    O30      O        0.64400    0.90010    0.35773    1.000
    O31      O        0.70080    0.18244    0.98638    1.000
    O32      O        0.87450    0.35139    0.15223    1.000
    O33      O        0.14400    0.90010    0.14227    1.000
    O34      O        0.59130    0.95373    0.23718    1.000
    O35      O        0.40870    0.04627    0.76282    1.000
    O36      O        0.16070    0.22708    0.72002    1.000
