# CIF file generated by openbabel 3.1.0, see https://openbabel.org
data_I
_chemical_name_common 'image0'
_cell_length_a 25.167
_cell_length_b 23.2
_cell_length_c 17.102
_cell_angle_alpha 90
_cell_angle_beta 93.561
_cell_angle_gamma 90
_space_group_name_H-M_alt 'P 1'
_space_group_name_Hall 'P 1'
loop_
    _symmetry_equiv_pos_as_xyz
    x,y,z
loop_
    _atom_site_label
    _atom_site_type_symbol
    _atom_site_fract_x
    _atom_site_fract_y
    _atom_site_fract_z
    _atom_site_occupancy
    Zn1      Zn       0.14745    0.06699    0.31645    1.000
    S1       S        0.26230    0.90100    0.82790    1.000
    O1       O        0.03625    0.06726    0.20480    1.000
    O2       O        0.08427    0.11516    0.29900    1.000
    O3       O        0.74590    0.43280    0.22070    1.000
    O4       O        0.70692    0.38118    0.31050    1.000
    O5       O        0.15168    0.04850    0.42800    1.000
    O6       O        0.26950    0.88410    0.91790    1.000
    O7       O        0.23130    0.85240    0.78120    1.000
    C1       C        0.04330    0.10670    0.25560    1.000
    C2       C        0.99953    0.14970    0.25960    1.000
    C3       C        0.95301    0.14410    0.21200    1.000
    H1       H        0.94930    0.11320    0.17550    1.000
    C4       C        0.91194    0.18360    0.21770    1.000
    H2       H        0.88010    0.17980    0.18510    1.000
    C5       C        0.91740    0.22880    0.27100    1.000
    C6       C        0.96390    0.23440    0.31860    1.000
    C7       C        0.00500    0.19490    0.31290    1.000
    H3       H        0.03680    0.19870    0.34540    1.000
    C8       C        0.87094    0.26900    0.27481    1.000
    C9       C        0.86824    0.31160    0.21750    1.000
    H4       H        0.89510    0.31400    0.18100    1.000
    C10      C        0.82624    0.35058    0.21360    1.000
    H5       H        0.82440    0.37970    0.17450    1.000
    C11      C        0.78695    0.34703    0.26710    1.000
    C12      C        0.78965    0.30447    0.32440    1.000
    H6       H        0.76280    0.30200    0.36090    1.000
    C13      C        0.83165    0.26545    0.32830    1.000
    C14      C        0.74517    0.39171    0.26850    1.000
    C15      C        0.15215    0.04720    0.59070    1.000
    H7       H        0.15530    0.08290    0.56420    1.000
    C16      C        0.14867    0.04820    0.66923    1.000
    H8       H        0.14660    0.08420    0.69520    1.000
    C17      C        0.14252    0.99720    0.79730    1.000
    C18      C        0.09272    0.00610    0.82600    1.000
    H9       H        0.06220    0.00930    0.79080    1.000
    C19      C        0.08762    0.01020    0.90630    1.000
    H10      H        0.05360    0.01620    0.92600    1.000
    C20      C        0.13234    0.00530    0.95780    1.000
    C21      C        0.18214    0.99640    0.92910    1.000
    H11      H        0.21270    0.99320    0.96430    1.000
    C22      C        0.18723    0.99230    0.84880    1.000
    C23      C        0.12940    0.00760    0.04430    1.000
    C24      C        0.23340    0.97490    0.81420    1.000
    C25      C        0.32490    0.89870    0.80230    1.000
    H12      H        0.34470    0.86960    0.83400    1.000
    H13      H        0.34160    0.93650    0.81120    1.000
    H14      H        0.32550    0.88850    0.74670    1.000
    Zn2      Zn       0.64745    0.56699    0.31645    1.000
    S2       S        0.76230    0.40100    0.82790    1.000
    O8       O        0.53625    0.56726    0.20480    1.000
    O9       O        0.58427    0.61516    0.29900    1.000
    O10      O        0.24590    0.93280    0.22070    1.000
    O11      O        0.20692    0.88118    0.31050    1.000
    O12      O        0.65168    0.54850    0.42800    1.000
    O13      O        0.76950    0.38410    0.91790    1.000
    O14      O        0.73130    0.35240    0.78120    1.000
    C26      C        0.54330    0.60670    0.25560    1.000
    C27      C        0.49953    0.64970    0.25960    1.000
    C28      C        0.45301    0.64410    0.21200    1.000
    H15      H        0.44930    0.61320    0.17550    1.000
    C29      C        0.41194    0.68360    0.21770    1.000
    H16      H        0.38010    0.67980    0.18510    1.000
    C30      C        0.41740    0.72880    0.27100    1.000
    C31      C        0.46390    0.73440    0.31860    1.000
    C32      C        0.50500    0.69490    0.31290    1.000
    H17      H        0.53680    0.69870    0.34540    1.000
    C33      C        0.37094    0.76900    0.27481    1.000
    C34      C        0.36824    0.81160    0.21750    1.000
    H18      H        0.39510    0.81400    0.18100    1.000
    C35      C        0.32624    0.85058    0.21360    1.000
    H19      H        0.32440    0.87970    0.17450    1.000
    C36      C        0.28695    0.84703    0.26710    1.000
    C37      C        0.28965    0.80447    0.32440    1.000
    H20      H        0.26280    0.80200    0.36090    1.000
    C38      C        0.33165    0.76545    0.32830    1.000
    C39      C        0.24517    0.89171    0.26850    1.000
    C40      C        0.65215    0.54720    0.59070    1.000
    H21      H        0.65530    0.58290    0.56420    1.000
    C41      C        0.64867    0.54820    0.66923    1.000
    H22      H        0.64660    0.58420    0.69520    1.000
    C42      C        0.64252    0.49720    0.79730    1.000
    C43      C        0.59272    0.50610    0.82600    1.000
    H23      H        0.56220    0.50930    0.79080    1.000
    C44      C        0.58762    0.51020    0.90630    1.000
    H24      H        0.55360    0.51620    0.92600    1.000
    C45      C        0.63234    0.50530    0.95780    1.000
    C46      C        0.68214    0.49640    0.92910    1.000
    H25      H        0.71270    0.49320    0.96430    1.000
    C47      C        0.68723    0.49230    0.84880    1.000
    C48      C        0.62940    0.50760    0.04430    1.000
    C49      C        0.73340    0.47490    0.81420    1.000
    C50      C        0.82490    0.39870    0.80230    1.000
    H26      H        0.84470    0.36960    0.83400    1.000
    H27      H        0.84160    0.43650    0.81120    1.000
    H28      H        0.82550    0.38850    0.74670    1.000
    Zn3      Zn       0.14745    0.93301    0.31645    1.000
    S3       S        0.26230    0.09900    0.82790    1.000
    O15      O        0.03625    0.93274    0.20480    1.000
    O16      O        0.08427    0.88484    0.29900    1.000
    O17      O        0.74590    0.56720    0.22070    1.000
    O18      O        0.70692    0.61882    0.31050    1.000
    O19      O        0.15168    0.95150    0.42800    1.000
    O20      O        0.26950    0.11590    0.91790    1.000
    O21      O        0.23130    0.14760    0.78120    1.000
    C51      C        0.04330    0.89330    0.25560    1.000
    C52      C        0.99953    0.85030    0.25960    1.000
    C53      C        0.95301    0.85590    0.21200    1.000
    H29      H        0.94930    0.88680    0.17550    1.000
    C54      C        0.91194    0.81640    0.21770    1.000
    H30      H        0.88010    0.82020    0.18510    1.000
    C55      C        0.91740    0.77120    0.27100    1.000
    C56      C        0.96390    0.76560    0.31860    1.000
    C57      C        0.00500    0.80510    0.31290    1.000
    H31      H        0.03680    0.80130    0.34540    1.000
    C58      C        0.87094    0.73100    0.27481    1.000
    C59      C        0.86824    0.68840    0.21750    1.000
    H32      H        0.89510    0.68600    0.18100    1.000
    C60      C        0.82624    0.64942    0.21360    1.000
    H33      H        0.82440    0.62030    0.17450    1.000
    C61      C        0.78695    0.65297    0.26710    1.000
    C62      C        0.78965    0.69553    0.32440    1.000
    H34      H        0.76280    0.69800    0.36090    1.000
    C63      C        0.83165    0.73455    0.32830    1.000
    C64      C        0.74517    0.60829    0.26850    1.000
    C65      C        0.15215    0.95280    0.59070    1.000
    H35      H        0.15530    0.91710    0.56420    1.000
    C66      C        0.14867    0.95180    0.66923    1.000
    H36      H        0.14660    0.91580    0.69520    1.000
    C67      C        0.14252    0.00280    0.79730    1.000
    C68      C        0.09272    0.99390    0.82600    1.000
    H37      H        0.06220    0.99070    0.79080    1.000
    C69      C        0.08762    0.98980    0.90630    1.000
    H38      H        0.05360    0.98380    0.92600    1.000
    C70      C        0.13234    0.99470    0.95780    1.000
    C71      C        0.18214    0.00360    0.92910    1.000
    H39      H        0.21270    0.00680    0.96430    1.000
    C72      C        0.18723    0.00770    0.84880    1.000
    C73      C        0.12940    0.99240    0.04430    1.000
    C74      C        0.23340    0.02510    0.81420    1.000
    C75      C        0.32490    0.10130    0.80230    1.000
    H40      H        0.34470    0.13040    0.83400    1.000
    H41      H        0.34160    0.06350    0.81120    1.000
    H42      H        0.32550    0.11150    0.74670    1.000
    Zn4      Zn       0.64745    0.43301    0.31645    1.000
    S4       S        0.76230    0.59900    0.82790    1.000
    O22      O        0.53625    0.43274    0.20480    1.000
    O23      O        0.58427    0.38484    0.29900    1.000
    O24      O        0.24590    0.06720    0.22070    1.000
    O25      O        0.20692    0.11882    0.31050    1.000
    O26      O        0.65168    0.45150    0.42800    1.000
    O27      O        0.76950    0.61590    0.91790    1.000
    O28      O        0.73130    0.64760    0.78120    1.000
    C76      C        0.54330    0.39330    0.25560    1.000
    C77      C        0.49953    0.35030    0.25960    1.000
    C78      C        0.45301    0.35590    0.21200    1.000
    H43      H        0.44930    0.38680    0.17550    1.000
    C79      C        0.41194    0.31640    0.21770    1.000
    H44      H        0.38010    0.32020    0.18510    1.000
    C80      C        0.41740    0.27120    0.27100    1.000
    C81      C        0.46390    0.26560    0.31860    1.000
    C82      C        0.50500    0.30510    0.31290    1.000
    H45      H        0.53680    0.30130    0.34540    1.000
    C83      C        0.37094    0.23100    0.27481    1.000
    C84      C        0.36824    0.18840    0.21750    1.000
    H46      H        0.39510    0.18600    0.18100    1.000
    C85      C        0.32624    0.14942    0.21360    1.000
    H47      H        0.32440    0.12030    0.17450    1.000
    C86      C        0.28695    0.15297    0.26710    1.000
    C87      C        0.28965    0.19553    0.32440    1.000
    H48      H        0.26280    0.19800    0.36090    1.000
    C88      C        0.33165    0.23455    0.32830    1.000
    C89      C        0.24517    0.10829    0.26850    1.000
    C90      C        0.65215    0.45280    0.59070    1.000
    H49      H        0.65530    0.41710    0.56420    1.000
    C91      C        0.64867    0.45180    0.66923    1.000
    H50      H        0.64660    0.41580    0.69520    1.000
    C92      C        0.64252    0.50280    0.79730    1.000
    C93      C        0.59272    0.49390    0.82600    1.000
    H51      H        0.56220    0.49070    0.79080    1.000
    C94      C        0.58762    0.48980    0.90630    1.000
    H52      H        0.55360    0.48380    0.92600    1.000
    C95      C        0.63234    0.49470    0.95780    1.000
    C96      C        0.68214    0.50360    0.92910    1.000
    H53      H        0.71270    0.50680    0.96430    1.000
    C97      C        0.68723    0.50770    0.84880    1.000
    C98      C        0.62940    0.49240    0.04430    1.000
    C99      C        0.73340    0.52510    0.81420    1.000
    C100     C        0.82490    0.60130    0.80230    1.000
    H54      H        0.84470    0.63040    0.83400    1.000
    H55      H        0.84160    0.56350    0.81120    1.000
    H56      H        0.82550    0.61150    0.74670    1.000
    Zn5      Zn       0.08059    0.00000    0.18451    1.000
    Zn6      Zn       0.20782    0.00000    0.18385    1.000
    O29      O        0.14548    0.00000    0.25090    1.000
    O30      O        0.17440    0.00000    0.08470    1.000
    O31      O        0.08400    0.00000    0.07190    1.000
    C101     C        0.15205    0.00000    0.46133    1.000
    C102     C        0.15137    0.00000    0.54919    1.000
    C103     C        0.14806    0.00000    0.71084    1.000
    Zn7      Zn       0.58059    0.50000    0.18451    1.000
    Zn8      Zn       0.70782    0.50000    0.18385    1.000
    O32      O        0.64548    0.50000    0.25090    1.000
    O33      O        0.67440    0.50000    0.08470    1.000
    O34      O        0.58400    0.50000    0.07190    1.000
    C104     C        0.65205    0.50000    0.46133    1.000
    C105     C        0.65137    0.50000    0.54919    1.000
    C106     C        0.64806    0.50000    0.71084    1.000
    Zn9      Zn       0.85255    0.06699    0.68355    1.000
    S5       S        0.73770    0.90100    0.17210    1.000
    O35      O        0.96375    0.06726    0.79520    1.000
    O36      O        0.91573    0.11516    0.70100    1.000
    O37      O        0.25410    0.43280    0.77930    1.000
    O38      O        0.29308    0.38118    0.68950    1.000
    O39      O        0.84832    0.04850    0.57200    1.000
    O40      O        0.73050    0.88410    0.08210    1.000
    O41      O        0.76870    0.85240    0.21880    1.000
    C107     C        0.95670    0.10670    0.74440    1.000
    C108     C        0.00047    0.14970    0.74040    1.000
    C109     C        0.04699    0.14410    0.78800    1.000
    H57      H        0.05070    0.11320    0.82450    1.000
    C110     C        0.08806    0.18360    0.78230    1.000
    H58      H        0.11990    0.17980    0.81490    1.000
    C111     C        0.08260    0.22880    0.72900    1.000
    C112     C        0.03610    0.23440    0.68140    1.000
    C113     C        0.99500    0.19490    0.68710    1.000
    H59      H        0.96320    0.19870    0.65460    1.000
    C114     C        0.12906    0.26900    0.72519    1.000
    C115     C        0.13176    0.31160    0.78250    1.000
    H60      H        0.10490    0.31400    0.81900    1.000
    C116     C        0.17376    0.35058    0.78640    1.000
    H61      H        0.17560    0.37970    0.82550    1.000
    C117     C        0.21305    0.34703    0.73290    1.000
    C118     C        0.21035    0.30447    0.67560    1.000
    H62      H        0.23720    0.30200    0.63910    1.000
    C119     C        0.16835    0.26545    0.67170    1.000
    C120     C        0.25483    0.39171    0.73150    1.000
    C121     C        0.84785    0.04720    0.40930    1.000
    H63      H        0.84470    0.08290    0.43580    1.000
    C122     C        0.85133    0.04820    0.33077    1.000
    H64      H        0.85340    0.08420    0.30480    1.000
    C123     C        0.85748    0.99720    0.20270    1.000
    C124     C        0.90728    0.00610    0.17400    1.000
    H65      H        0.93780    0.00930    0.20920    1.000
    C125     C        0.91238    0.01020    0.09370    1.000
    H66      H        0.94640    0.01620    0.07400    1.000
    C126     C        0.86766    0.00530    0.04220    1.000
    C127     C        0.81786    0.99640    0.07090    1.000
    H67      H        0.78730    0.99320    0.03570    1.000
    C128     C        0.81277    0.99230    0.15120    1.000
    C129     C        0.87060    0.00760    0.95570    1.000
    C130     C        0.76660    0.97490    0.18580    1.000
    C131     C        0.67510    0.89870    0.19770    1.000
    H68      H        0.65530    0.86960    0.16600    1.000
    H69      H        0.65840    0.93650    0.18880    1.000
    H70      H        0.67450    0.88850    0.25330    1.000
    Zn10     Zn       0.35255    0.56699    0.68355    1.000
    S6       S        0.23770    0.40100    0.17210    1.000
    O42      O        0.46375    0.56726    0.79520    1.000
    O43      O        0.41573    0.61516    0.70100    1.000
    O44      O        0.75410    0.93280    0.77930    1.000
    O45      O        0.79308    0.88118    0.68950    1.000
    O46      O        0.34832    0.54850    0.57200    1.000
    O47      O        0.23050    0.38410    0.08210    1.000
    O48      O        0.26870    0.35240    0.21880    1.000
    C132     C        0.45670    0.60670    0.74440    1.000
    C133     C        0.50047    0.64970    0.74040    1.000
    C134     C        0.54699    0.64410    0.78800    1.000
    H71      H        0.55070    0.61320    0.82450    1.000
    C135     C        0.58806    0.68360    0.78230    1.000
    H72      H        0.61990    0.67980    0.81490    1.000
    C136     C        0.58260    0.72880    0.72900    1.000
    C137     C        0.53610    0.73440    0.68140    1.000
    C138     C        0.49500    0.69490    0.68710    1.000
    H73      H        0.46320    0.69870    0.65460    1.000
    C139     C        0.62906    0.76900    0.72519    1.000
    C140     C        0.63176    0.81160    0.78250    1.000
    H74      H        0.60490    0.81400    0.81900    1.000
    C141     C        0.67376    0.85058    0.78640    1.000
    H75      H        0.67560    0.87970    0.82550    1.000
    C142     C        0.71305    0.84703    0.73290    1.000
    C143     C        0.71035    0.80447    0.67560    1.000
    H76      H        0.73720    0.80200    0.63910    1.000
    C144     C        0.66835    0.76545    0.67170    1.000
    C145     C        0.75483    0.89171    0.73150    1.000
    C146     C        0.34785    0.54720    0.40930    1.000
    H77      H        0.34470    0.58290    0.43580    1.000
    C147     C        0.35133    0.54820    0.33077    1.000
    H78      H        0.35340    0.58420    0.30480    1.000
    C148     C        0.35748    0.49720    0.20270    1.000
    C149     C        0.40728    0.50610    0.17400    1.000
    H79      H        0.43780    0.50930    0.20920    1.000
    C150     C        0.41238    0.51020    0.09370    1.000
    H80      H        0.44640    0.51620    0.07400    1.000
    C151     C        0.36766    0.50530    0.04220    1.000
    C152     C        0.31786    0.49640    0.07090    1.000
    H81      H        0.28730    0.49320    0.03570    1.000
    C153     C        0.31277    0.49230    0.15120    1.000
    C154     C        0.37060    0.50760    0.95570    1.000
    C155     C        0.26660    0.47490    0.18580    1.000
    C156     C        0.17510    0.39870    0.19770    1.000
    H82      H        0.15530    0.36960    0.16600    1.000
    H83      H        0.15840    0.43650    0.18880    1.000
    H84      H        0.17450    0.38850    0.25330    1.000
    Zn11     Zn       0.85255    0.93301    0.68355    1.000
    S7       S        0.73770    0.09900    0.17210    1.000
    O49      O        0.96375    0.93274    0.79520    1.000
    O50      O        0.91573    0.88484    0.70100    1.000
    O51      O        0.25410    0.56720    0.77930    1.000
    O52      O        0.29308    0.61882    0.68950    1.000
    O53      O        0.84832    0.95150    0.57200    1.000
    O54      O        0.73050    0.11590    0.08210    1.000
    O55      O        0.76870    0.14760    0.21880    1.000
    C157     C        0.95670    0.89330    0.74440    1.000
    C158     C        0.00047    0.85030    0.74040    1.000
    C159     C        0.04699    0.85590    0.78800    1.000
    H85      H        0.05070    0.88680    0.82450    1.000
    C160     C        0.08806    0.81640    0.78230    1.000
    H86      H        0.11990    0.82020    0.81490    1.000
    C161     C        0.08260    0.77120    0.72900    1.000
    C162     C        0.03610    0.76560    0.68140    1.000
    C163     C        0.99500    0.80510    0.68710    1.000
    H87      H        0.96320    0.80130    0.65460    1.000
    C164     C        0.12906    0.73100    0.72519    1.000
    C165     C        0.13176    0.68840    0.78250    1.000
    H88      H        0.10490    0.68600    0.81900    1.000
    C166     C        0.17376    0.64942    0.78640    1.000
    H89      H        0.17560    0.62030    0.82550    1.000
    C167     C        0.21305    0.65297    0.73290    1.000
    C168     C        0.21035    0.69553    0.67560    1.000
    H90      H        0.23720    0.69800    0.63910    1.000
    C169     C        0.16835    0.73455    0.67170    1.000
    C170     C        0.25483    0.60829    0.73150    1.000
    C171     C        0.84785    0.95280    0.40930    1.000
    H91      H        0.84470    0.91710    0.43580    1.000
    C172     C        0.85133    0.95180    0.33077    1.000
    H92      H        0.85340    0.91580    0.30480    1.000
    C173     C        0.85748    0.00280    0.20270    1.000
    C174     C        0.90728    0.99390    0.17400    1.000
    H93      H        0.93780    0.99070    0.20920    1.000
    C175     C        0.91238    0.98980    0.09370    1.000
    H94      H        0.94640    0.98380    0.07400    1.000
    C176     C        0.86766    0.99470    0.04220    1.000
    C177     C        0.81786    0.00360    0.07090    1.000
    H95      H        0.78730    0.00680    0.03570    1.000
    C178     C        0.81277    0.00770    0.15120    1.000
    C179     C        0.87060    0.99240    0.95570    1.000
    C180     C        0.76660    0.02510    0.18580    1.000
    C181     C        0.67510    0.10130    0.19770    1.000
    H96      H        0.65530    0.13040    0.16600    1.000
    H97      H        0.65840    0.06350    0.18880    1.000
    H98      H        0.67450    0.11150    0.25330    1.000
    Zn12     Zn       0.35255    0.43301    0.68355    1.000
    S8       S        0.23770    0.59900    0.17210    1.000
    O56      O        0.46375    0.43274    0.79520    1.000
    O57      O        0.41573    0.38484    0.70100    1.000
    O58      O        0.75410    0.06720    0.77930    1.000
    O59      O        0.79308    0.11882    0.68950    1.000
    O60      O        0.34832    0.45150    0.57200    1.000
    O61      O        0.23050    0.61590    0.08210    1.000
    O62      O        0.26870    0.64760    0.21880    1.000
    C182     C        0.45670    0.39330    0.74440    1.000
    C183     C        0.50047    0.35030    0.74040    1.000
    C184     C        0.54699    0.35590    0.78800    1.000
    H99      H        0.55070    0.38680    0.82450    1.000
    C185     C        0.58806    0.31640    0.78230    1.000
    H100     H        0.61990    0.32020    0.81490    1.000
    C186     C        0.58260    0.27120    0.72900    1.000
    C187     C        0.53610    0.26560    0.68140    1.000
    C188     C        0.49500    0.30510    0.68710    1.000
    H101     H        0.46320    0.30130    0.65460    1.000
    C189     C        0.62906    0.23100    0.72519    1.000
    C190     C        0.63176    0.18840    0.78250    1.000
    H102     H        0.60490    0.18600    0.81900    1.000
    C191     C        0.67376    0.14942    0.78640    1.000
    H103     H        0.67560    0.12030    0.82550    1.000
    C192     C        0.71305    0.15297    0.73290    1.000
    C193     C        0.71035    0.19553    0.67560    1.000
    H104     H        0.73720    0.19800    0.63910    1.000
    C194     C        0.66835    0.23455    0.67170    1.000
    C195     C        0.75483    0.10829    0.73150    1.000
    C196     C        0.34785    0.45280    0.40930    1.000
    H105     H        0.34470    0.41710    0.43580    1.000
    C197     C        0.35133    0.45180    0.33077    1.000
    H106     H        0.35340    0.41580    0.30480    1.000
    C198     C        0.35748    0.50280    0.20270    1.000
    C199     C        0.40728    0.49390    0.17400    1.000
    H107     H        0.43780    0.49070    0.20920    1.000
    C200     C        0.41238    0.48980    0.09370    1.000
    H108     H        0.44640    0.48380    0.07400    1.000
    C201     C        0.36766    0.49470    0.04220    1.000
    C202     C        0.31786    0.50360    0.07090    1.000
    H109     H        0.28730    0.50680    0.03570    1.000
    C203     C        0.31277    0.50770    0.15120    1.000
    C204     C        0.37060    0.49240    0.95570    1.000
    C205     C        0.26660    0.52510    0.18580    1.000
    C206     C        0.17510    0.60130    0.19770    1.000
    H110     H        0.15530    0.63040    0.16600    1.000
    H111     H        0.15840    0.56350    0.18880    1.000
    H112     H        0.17450    0.61150    0.25330    1.000
    Zn13     Zn       0.91941    0.00000    0.81549    1.000
    Zn14     Zn       0.79218    0.00000    0.81615    1.000
    O63      O        0.85452    0.00000    0.74910    1.000
    O64      O        0.82560    0.00000    0.91530    1.000
    O65      O        0.91600    0.00000    0.92810    1.000
    C207     C        0.84795    0.00000    0.53867    1.000
    C208     C        0.84863    0.00000    0.45081    1.000
    C209     C        0.85194    0.00000    0.28916    1.000
    Zn15     Zn       0.41941    0.50000    0.81549    1.000
    Zn16     Zn       0.29218    0.50000    0.81615    1.000
    O66      O        0.35452    0.50000    0.74910    1.000
    O67      O        0.32560    0.50000    0.91530    1.000
    O68      O        0.41600    0.50000    0.92810    1.000
    C210     C        0.34795    0.50000    0.53867    1.000
    C211     C        0.34863    0.50000    0.45081    1.000
    C212     C        0.35194    0.50000    0.28916    1.000
