# CIF file generated by openbabel 3.1.0, see https://openbabel.org
data_I
_chemical_name_common 'image0'
_cell_length_a 17.492
_cell_length_b 17.492
_cell_length_c 13.242
_cell_angle_alpha 90
_cell_angle_beta 90
_cell_angle_gamma 120
_space_group_name_H-M_alt 'P 1'
_space_group_name_Hall 'P 1'
loop_
    _symmetry_equiv_pos_as_xyz
    x,y,z
loop_
    _atom_site_label
    _atom_site_type_symbol
    _atom_site_fract_x
    _atom_site_fract_y
    _atom_site_fract_z
    _atom_site_occupancy
    Cu1      Cu       0.55764    0.42464    0.13860    1.000
    Cu2      Cu       0.55283    0.41905    0.39090    1.000
    O1       O        0.53150    0.36130    0.26200    1.000
    N1       N        0.60410    0.50980    0.03600    1.000
    N2       N        0.40550    0.50330    0.00800    1.000
    O2       O        0.32460    0.56080    0.89400    1.000
    O3       O        0.67700    0.44190    0.13600    1.000
    O4       O        0.55240    0.57090    0.90900    1.000
    O5       O        0.19920    0.49200    0.98200    1.000
    O6       O        0.80360    0.50820    0.05000    1.000
    O7       O        0.44400    0.42750    0.11500    1.000
    C1       C        0.54640    0.52610    0.99000    1.000
    C2       C        0.45700    0.48140    0.04300    1.000
    C3       C        0.69660    0.54820    0.00500    1.000
    H1       H        0.69620    0.53260    0.93240    1.000
    C4       C        0.72510    0.49600    0.06200    1.000
    C5       C        0.31870    0.47500    0.04270    1.000
    H2       H        0.28500    0.40860    0.03960    1.000
    C6       C        0.27400    0.51200    0.96000    1.000
    C7       C        0.75800    0.64020    0.01400    1.000
    H3       H        0.72220    0.66850    0.00390    1.000
    H4       H        0.79500    0.65390    0.95240    1.000
    C8       C        0.82190    0.69450    0.09260    1.000
    H5       H        0.87790    0.74270    0.06460    1.000
    H6       H        0.83410    0.65920    0.14180    1.000
    C9       C        0.73600    0.80400    0.04800    1.000
    H7       H        0.74140    0.78620    0.97940    1.000
    H8       H        0.78150    0.86570    0.05890    1.000
    H9       H        0.67770    0.79710    0.05750    1.000
    S1       S        0.75240    0.73210    0.14170    1.000
    C10      C        0.31300    0.50020    0.14410    1.000
    H10      H        0.36940    0.51680    0.17860    1.000
    H11      H        0.26600    0.44790    0.17940    1.000
    C11      C        0.29500    0.57220    0.15680    1.000
    H12      H        0.24720    0.56710    0.11230    1.000
    H13      H        0.34830    0.63110    0.14960    1.000
    S2       S        0.25930    0.54220    0.29110    1.000
    Hg1      Hg       0.74430    0.76070    0.32500    1.000
    Cl1      Cl       0.58850    0.73260    0.38910    1.000
    Cl2      Cl       0.89840    0.77920    0.37010    1.000
    Cl3      Cl       0.80560    0.86190    0.22720    1.000
    Hg2      Hg       0.19310    0.35400    0.24390    1.000
    Cu3      Cu       0.57536    0.13300    0.13860    1.000
    Cu4      Cu       0.58095    0.13378    0.39090    1.000
    O8       O        0.63870    0.17020    0.26200    1.000
    N3       N        0.49020    0.09430    0.03600    1.000
    N4       N        0.49670    0.90220    0.00800    1.000
    O9       O        0.43920    0.76380    0.89400    1.000
    O10      O        0.55810    0.23510    0.13600    1.000
    O11      O        0.42910    0.98150    0.90900    1.000
    O12      O        0.50800    0.70720    0.98200    1.000
    O13      O        0.49180    0.29540    0.05000    1.000
    O14      O        0.57250    0.01650    0.11500    1.000
    C12      C        0.47390    0.02030    0.99000    1.000
    C13      C        0.51860    0.97560    0.04300    1.000
    C14      C        0.45180    0.14840    0.00500    1.000
    H14      H        0.46740    0.16360    0.93240    1.000
    C15      C        0.50400    0.22910    0.06200    1.000
    C16      C        0.52500    0.84370    0.04270    1.000
    H15      H        0.59140    0.87640    0.03960    1.000
    C17      C        0.48800    0.76200    0.96000    1.000
    C18      C        0.35980    0.11780    0.01400    1.000
    H16      H        0.33150    0.05370    0.00390    1.000
    H17      H        0.34610    0.14110    0.95240    1.000
    C19      C        0.30550    0.12740    0.09260    1.000
    H18      H        0.25730    0.13520    0.06460    1.000
    H19      H        0.34080    0.17490    0.14180    1.000
    C20      C        0.19600    0.93200    0.04800    1.000
    H20      H        0.21380    0.95520    0.97940    1.000
    H21      H        0.13430    0.91580    0.05890    1.000
    H22      H        0.20290    0.88060    0.05750    1.000
    S3       S        0.26790    0.02030    0.14170    1.000
    C21      C        0.49980    0.81280    0.14410    1.000
    H23      H        0.48320    0.85260    0.17860    1.000
    H24      H        0.55210    0.81810    0.17940    1.000
    C22      C        0.42780    0.72280    0.15680    1.000
    H25      H        0.43290    0.68010    0.11230    1.000
    H26      H        0.36890    0.71720    0.14960    1.000
    S4       S        0.45780    0.71710    0.29110    1.000
    Hg3      Hg       0.23930    0.98360    0.32500    1.000
    Cl4      Cl       0.26740    0.85590    0.38910    1.000
    Cl5      Cl       0.22080    0.11920    0.37010    1.000
    Cl6      Cl       0.13810    0.94370    0.22720    1.000
    Hg4      Hg       0.64600    0.83910    0.24390    1.000
    Cu5      Cu       0.86700    0.44236    0.13860    1.000
    Cu6      Cu       0.86622    0.44717    0.39090    1.000
    O15      O        0.82980    0.46850    0.26200    1.000
    N5       N        0.90570    0.39590    0.03600    1.000
    N6       N        0.09780    0.59450    0.00800    1.000
    O16      O        0.23620    0.67540    0.89400    1.000
    O17      O        0.76490    0.32300    0.13600    1.000
    O18      O        0.01850    0.44760    0.90900    1.000
    O19      O        0.29280    0.80080    0.98200    1.000
    O20      O        0.70460    0.19640    0.05000    1.000
    O21      O        0.98350    0.55600    0.11500    1.000
    C23      C        0.97970    0.45360    0.99000    1.000
    C24      C        0.02440    0.54300    0.04300    1.000
    C25      C        0.85160    0.30340    0.00500    1.000
    H27      H        0.83640    0.30380    0.93240    1.000
    C26      C        0.77090    0.27490    0.06200    1.000
    C27      C        0.15630    0.68130    0.04270    1.000
    H28      H        0.12360    0.71500    0.03960    1.000
    C28      C        0.23800    0.72600    0.96000    1.000
    C29      C        0.88220    0.24200    0.01400    1.000
    H29      H        0.94630    0.27780    0.00390    1.000
    H30      H        0.85890    0.20500    0.95240    1.000
    C30      C        0.87260    0.17810    0.09260    1.000
    H31      H        0.86480    0.12210    0.06460    1.000
    H32      H        0.82510    0.16590    0.14180    1.000
    C31      C        0.06800    0.26400    0.04800    1.000
    H33      H        0.04480    0.25860    0.97940    1.000
    H34      H        0.08420    0.21850    0.05890    1.000
    H35      H        0.11940    0.32230    0.05750    1.000
    S5       S        0.97970    0.24760    0.14170    1.000
    C32      C        0.18720    0.68700    0.14410    1.000
    H36      H        0.14740    0.63060    0.17860    1.000
    H37      H        0.18190    0.73400    0.17940    1.000
    C33      C        0.27720    0.70500    0.15680    1.000
    H38      H        0.31990    0.75280    0.11230    1.000
    H39      H        0.28280    0.65170    0.14960    1.000
    S6       S        0.28290    0.74070    0.29110    1.000
    Hg5      Hg       0.01640    0.25570    0.32500    1.000
    Cl7      Cl       0.14410    0.41150    0.38910    1.000
    Cl8      Cl       0.88080    0.10160    0.37010    1.000
    Cl9      Cl       0.05630    0.19440    0.22720    1.000
    Hg6      Hg       0.16090    0.80690    0.24390    1.000
    Cu7      Cu       0.44236    0.57536    0.63860    1.000
    Cu8      Cu       0.44717    0.58095    0.89090    1.000
    O22      O        0.46850    0.63870    0.76200    1.000
    N7       N        0.39590    0.49020    0.53600    1.000
    N8       N        0.59450    0.49670    0.50800    1.000
    O23      O        0.67540    0.43920    0.39400    1.000
    O24      O        0.32300    0.55810    0.63600    1.000
    O25      O        0.44760    0.42910    0.40900    1.000
    O26      O        0.80080    0.50800    0.48200    1.000
    O27      O        0.19640    0.49180    0.55000    1.000
    O28      O        0.55600    0.57250    0.61500    1.000
    C34      C        0.45360    0.47390    0.49000    1.000
    C35      C        0.54300    0.51860    0.54300    1.000
    C36      C        0.30340    0.45180    0.50500    1.000
    H40      H        0.30380    0.46740    0.43240    1.000
    C37      C        0.27490    0.50400    0.56200    1.000
    C38      C        0.68130    0.52500    0.54270    1.000
    H41      H        0.71500    0.59140    0.53960    1.000
    C39      C        0.72600    0.48800    0.46000    1.000
    C40      C        0.24200    0.35980    0.51400    1.000
    H42      H        0.27780    0.33150    0.50390    1.000
    H43      H        0.20500    0.34610    0.45240    1.000
    C41      C        0.17810    0.30550    0.59260    1.000
    H44      H        0.12210    0.25730    0.56460    1.000
    H45      H        0.16590    0.34080    0.64180    1.000
    C42      C        0.26400    0.19600    0.54800    1.000
    H46      H        0.25860    0.21380    0.47940    1.000
    H47      H        0.21850    0.13430    0.55890    1.000
    H48      H        0.32230    0.20290    0.55750    1.000
    S7       S        0.24760    0.26790    0.64170    1.000
    C43      C        0.68700    0.49980    0.64410    1.000
    H49      H        0.63060    0.48320    0.67860    1.000
    H50      H        0.73400    0.55210    0.67940    1.000
    C44      C        0.70500    0.42780    0.65680    1.000
    H51      H        0.75280    0.43290    0.61230    1.000
    H52      H        0.65170    0.36890    0.64960    1.000
    S8       S        0.74070    0.45780    0.79110    1.000
    Hg7      Hg       0.25570    0.23930    0.82500    1.000
    Cl10     Cl       0.41150    0.26740    0.88910    1.000
    Cl11     Cl       0.10160    0.22080    0.87010    1.000
    Cl12     Cl       0.19440    0.13810    0.72720    1.000
    Hg8      Hg       0.80690    0.64600    0.74390    1.000
    Cu9      Cu       0.42464    0.86700    0.63860    1.000
    Cu10     Cu       0.41905    0.86622    0.89090    1.000
    O29      O        0.36130    0.82980    0.76200    1.000
    N9       N        0.50980    0.90570    0.53600    1.000
    N10      N        0.50330    0.09780    0.50800    1.000
    O30      O        0.56080    0.23620    0.39400    1.000
    O31      O        0.44190    0.76490    0.63600    1.000
    O32      O        0.57090    0.01850    0.40900    1.000
    O33      O        0.49200    0.29280    0.48200    1.000
    O34      O        0.50820    0.70460    0.55000    1.000
    O35      O        0.42750    0.98350    0.61500    1.000
    C45      C        0.52610    0.97970    0.49000    1.000
    C46      C        0.48140    0.02440    0.54300    1.000
    C47      C        0.54820    0.85160    0.50500    1.000
    H53      H        0.53260    0.83640    0.43240    1.000
    C48      C        0.49600    0.77090    0.56200    1.000
    C49      C        0.47500    0.15630    0.54270    1.000
    H54      H        0.40860    0.12360    0.53960    1.000
    C50      C        0.51200    0.23800    0.46000    1.000
    C51      C        0.64020    0.88220    0.51400    1.000
    H55      H        0.66850    0.94630    0.50390    1.000
    H56      H        0.65390    0.85890    0.45240    1.000
    C52      C        0.69450    0.87260    0.59260    1.000
    H57      H        0.74270    0.86480    0.56460    1.000
    H58      H        0.65920    0.82510    0.64180    1.000
    C53      C        0.80400    0.06800    0.54800    1.000
    H59      H        0.78620    0.04480    0.47940    1.000
    H60      H        0.86570    0.08420    0.55890    1.000
    H61      H        0.79710    0.11940    0.55750    1.000
    S9       S        0.73210    0.97970    0.64170    1.000
    C54      C        0.50020    0.18720    0.64410    1.000
    H62      H        0.51680    0.14740    0.67860    1.000
    H63      H        0.44790    0.18190    0.67940    1.000
    C55      C        0.57220    0.27720    0.65680    1.000
    H64      H        0.56710    0.31990    0.61230    1.000
    H65      H        0.63110    0.28280    0.64960    1.000
    S10      S        0.54220    0.28290    0.79110    1.000
    Hg9      Hg       0.76070    0.01640    0.82500    1.000
    Cl13     Cl       0.73260    0.14410    0.88910    1.000
    Cl14     Cl       0.77920    0.88080    0.87010    1.000
    Cl15     Cl       0.86190    0.05630    0.72720    1.000
    Hg10     Hg       0.35400    0.16090    0.74390    1.000
    Cu11     Cu       0.13300    0.55764    0.63860    1.000
    Cu12     Cu       0.13378    0.55283    0.89090    1.000
    O36      O        0.17020    0.53150    0.76200    1.000
    N11      N        0.09430    0.60410    0.53600    1.000
    N12      N        0.90220    0.40550    0.50800    1.000
    O37      O        0.76380    0.32460    0.39400    1.000
    O38      O        0.23510    0.67700    0.63600    1.000
    O39      O        0.98150    0.55240    0.40900    1.000
    O40      O        0.70720    0.19920    0.48200    1.000
    O41      O        0.29540    0.80360    0.55000    1.000
    O42      O        0.01650    0.44400    0.61500    1.000
    C56      C        0.02030    0.54640    0.49000    1.000
    C57      C        0.97560    0.45700    0.54300    1.000
    C58      C        0.14840    0.69660    0.50500    1.000
    H66      H        0.16360    0.69620    0.43240    1.000
    C59      C        0.22910    0.72510    0.56200    1.000
    C60      C        0.84370    0.31870    0.54270    1.000
    H67      H        0.87640    0.28500    0.53960    1.000
    C61      C        0.76200    0.27400    0.46000    1.000
    C62      C        0.11780    0.75800    0.51400    1.000
    H68      H        0.05370    0.72220    0.50390    1.000
    H69      H        0.14110    0.79500    0.45240    1.000
    C63      C        0.12740    0.82190    0.59260    1.000
    H70      H        0.13520    0.87790    0.56460    1.000
    H71      H        0.17490    0.83410    0.64180    1.000
    C64      C        0.93200    0.73600    0.54800    1.000
    H72      H        0.95520    0.74140    0.47940    1.000
    H73      H        0.91580    0.78150    0.55890    1.000
    H74      H        0.88060    0.67770    0.55750    1.000
    S11      S        0.02030    0.75240    0.64170    1.000
    C65      C        0.81280    0.31300    0.64410    1.000
    H75      H        0.85260    0.36940    0.67860    1.000
    H76      H        0.81810    0.26600    0.67940    1.000
    C66      C        0.72280    0.29500    0.65680    1.000
    H77      H        0.68010    0.24720    0.61230    1.000
    H78      H        0.71720    0.34830    0.64960    1.000
    S12      S        0.71710    0.25930    0.79110    1.000
    Hg11     Hg       0.98360    0.74430    0.82500    1.000
    Cl16     Cl       0.85590    0.58850    0.88910    1.000
    Cl17     Cl       0.11920    0.89840    0.87010    1.000
    Cl18     Cl       0.94370    0.80560    0.72720    1.000
    Hg12     Hg       0.83910    0.19310    0.74390    1.000
    Ca1      Ca       0.66667    0.33333    0.26250    1.000
    Ca2      Ca       0.33333    0.66667    0.76250    1.000
    C67      C        0.33333    0.66667    0.30200    1.000
    C68      C        0.66667    0.33333    0.80200    1.000
