# CIF file generated by openbabel 3.1.0, see https://openbabel.org
data_I
_chemical_name_common 'image0'
_cell_length_a 27.7205
_cell_length_b 27.7205
_cell_length_c 27.7205
_cell_angle_alpha 90
_cell_angle_beta 90
_cell_angle_gamma 90
_space_group_name_H-M_alt 'P 1'
_space_group_name_Hall 'P 1'
loop_
    _symmetry_equiv_pos_as_xyz
    x,y,z
loop_
    _atom_site_label
    _atom_site_type_symbol
    _atom_site_fract_x
    _atom_site_fract_y
    _atom_site_fract_z
    _atom_site_occupancy
    O1       O        0.44551    0.41895    0.85791    1.000
    O2       O        0.51700    0.39713    0.88770    1.000
    C1       C        0.48789    0.40286    0.85423    1.000
    C2       C        0.50178    0.38834    0.80474    1.000
    C3       C        0.47816    0.38480    0.76248    1.000
    H1       H        0.44560    0.39340    0.75630    1.000
    H2       H        0.47960    0.52040    0.91710    1.000
    O3       O        0.44551    0.91895    0.35791    1.000
    O4       O        0.51700    0.89713    0.38770    1.000
    C4       C        0.48789    0.90286    0.35423    1.000
    C5       C        0.50178    0.88834    0.30474    1.000
    C6       C        0.47816    0.88480    0.26248    1.000
    H3       H        0.44560    0.89340    0.25630    1.000
    H4       H        0.47960    0.02040    0.41710    1.000
    O5       O        0.94551    0.41895    0.35791    1.000
    O6       O        0.01700    0.39713    0.38770    1.000
    C7       C        0.98789    0.40286    0.35423    1.000
    C8       C        0.00178    0.38834    0.30474    1.000
    C9       C        0.97816    0.38480    0.26248    1.000
    H5       H        0.94560    0.39340    0.25630    1.000
    H6       H        0.97960    0.52040    0.41710    1.000
    O7       O        0.94551    0.91895    0.85791    1.000
    O8       O        0.01700    0.89713    0.88770    1.000
    C10      C        0.98789    0.90286    0.85423    1.000
    C11      C        0.00178    0.88834    0.80474    1.000
    C12      C        0.97816    0.88480    0.76248    1.000
    H7       H        0.94560    0.89340    0.75630    1.000
    H8       H        0.97960    0.02040    0.91710    1.000
    O9       O        0.55449    0.08105    0.35791    1.000
    O10      O        0.48300    0.10287    0.38770    1.000
    C13      C        0.51211    0.09714    0.35423    1.000
    C14      C        0.49822    0.11166    0.30474    1.000
    C15      C        0.52184    0.11520    0.26248    1.000
    H9       H        0.55440    0.10660    0.25630    1.000
    H10      H        0.52040    0.97960    0.41710    1.000
    O11      O        0.55449    0.58105    0.85791    1.000
    O12      O        0.48300    0.60287    0.88770    1.000
    C16      C        0.51211    0.59714    0.85423    1.000
    C17      C        0.49822    0.61166    0.80474    1.000
    C18      C        0.52184    0.61520    0.76248    1.000
    H11      H        0.55440    0.60660    0.75630    1.000
    H12      H        0.52040    0.47960    0.91710    1.000
    O13      O        0.05449    0.08105    0.85791    1.000
    O14      O        0.98300    0.10287    0.88770    1.000
    C19      C        0.01211    0.09714    0.85423    1.000
    C20      C        0.99822    0.11166    0.80474    1.000
    C21      C        0.02184    0.11520    0.76248    1.000
    H13      H        0.05440    0.10660    0.75630    1.000
    H14      H        0.02040    0.97960    0.91710    1.000
    O15      O        0.05449    0.58105    0.35791    1.000
    O16      O        0.98300    0.60287    0.38770    1.000
    C22      C        0.01211    0.59714    0.35423    1.000
    C23      C        0.99822    0.61166    0.30474    1.000
    C24      C        0.02184    0.61520    0.26248    1.000
    H15      H        0.05440    0.60660    0.25630    1.000
    H16      H        0.02040    0.47960    0.41710    1.000
    O17      O        0.05449    0.91895    0.14209    1.000
    O18      O        0.98300    0.89713    0.11230    1.000
    C25      C        0.01211    0.90286    0.14577    1.000
    C26      C        0.99822    0.88834    0.19526    1.000
    C27      C        0.02184    0.88480    0.23752    1.000
    H17      H        0.05440    0.89340    0.24370    1.000
    H18      H        0.02040    0.02040    0.08290    1.000
    O19      O        0.05449    0.41895    0.64209    1.000
    O20      O        0.98300    0.39713    0.61230    1.000
    C28      C        0.01211    0.40286    0.64577    1.000
    C29      C        0.99822    0.38834    0.69526    1.000
    C30      C        0.02184    0.38480    0.73752    1.000
    H19      H        0.05440    0.39340    0.74370    1.000
    H20      H        0.02040    0.52040    0.58290    1.000
    O21      O        0.55449    0.91895    0.64209    1.000
    O22      O        0.48300    0.89713    0.61230    1.000
    C31      C        0.51211    0.90286    0.64577    1.000
    C32      C        0.49822    0.88834    0.69526    1.000
    C33      C        0.52184    0.88480    0.73752    1.000
    H21      H        0.55440    0.89340    0.74370    1.000
    H22      H        0.52040    0.02040    0.58290    1.000
    O23      O        0.55449    0.41895    0.14209    1.000
    O24      O        0.48300    0.39713    0.11230    1.000
    C34      C        0.51211    0.40286    0.14577    1.000
    C35      C        0.49822    0.38834    0.19526    1.000
    C36      C        0.52184    0.38480    0.23752    1.000
    H23      H        0.55440    0.39340    0.24370    1.000
    H24      H        0.52040    0.52040    0.08290    1.000
    O25      O        0.94551    0.58105    0.64209    1.000
    O26      O        0.01700    0.60287    0.61230    1.000
    C37      C        0.98789    0.59714    0.64577    1.000
    C38      C        0.00178    0.61166    0.69526    1.000
    C39      C        0.97816    0.61520    0.73752    1.000
    H25      H        0.94560    0.60660    0.74370    1.000
    H26      H        0.97960    0.47960    0.58290    1.000
    O27      O        0.94551    0.08105    0.14209    1.000
    O28      O        0.01700    0.10287    0.11230    1.000
    C40      C        0.98789    0.09714    0.14577    1.000
    C41      C        0.00178    0.11166    0.19526    1.000
    C42      C        0.97816    0.11520    0.23752    1.000
    H27      H        0.94560    0.10660    0.24370    1.000
    H28      H        0.97960    0.97960    0.08290    1.000
    O29      O        0.44551    0.58105    0.14209    1.000
    O30      O        0.51700    0.60287    0.11230    1.000
    C43      C        0.48789    0.59714    0.14577    1.000
    C44      C        0.50178    0.61166    0.19526    1.000
    C45      C        0.47816    0.61520    0.23752    1.000
    H29      H        0.44560    0.60660    0.24370    1.000
    H30      H        0.47960    0.47960    0.08290    1.000
    O31      O        0.44551    0.08105    0.64209    1.000
    O32      O        0.51700    0.10287    0.61230    1.000
    C46      C        0.48789    0.09714    0.64577    1.000
    C47      C        0.50178    0.11166    0.69526    1.000
    C48      C        0.47816    0.11520    0.73752    1.000
    H31      H        0.44560    0.10660    0.74370    1.000
    H32      H        0.47960    0.97960    0.58290    1.000
    O33      O        0.85791    0.44551    0.41895    1.000
    O34      O        0.88770    0.51700    0.39713    1.000
    C49      C        0.85423    0.48789    0.40286    1.000
    C50      C        0.80474    0.50178    0.38834    1.000
    C51      C        0.76248    0.47816    0.38480    1.000
    H33      H        0.75630    0.44560    0.39340    1.000
    H34      H        0.91710    0.47960    0.52040    1.000
    O35      O        0.85791    0.94551    0.91895    1.000
    O36      O        0.88770    0.01700    0.89713    1.000
    C52      C        0.85423    0.98789    0.90286    1.000
    C53      C        0.80474    0.00178    0.88834    1.000
    C54      C        0.76248    0.97816    0.88480    1.000
    H35      H        0.75630    0.94560    0.89340    1.000
    H36      H        0.91710    0.97960    0.02040    1.000
    O37      O        0.35791    0.44551    0.91895    1.000
    O38      O        0.38770    0.51700    0.89713    1.000
    C55      C        0.35423    0.48789    0.90286    1.000
    C56      C        0.30474    0.50178    0.88834    1.000
    C57      C        0.26248    0.47816    0.88480    1.000
    H37      H        0.25630    0.44560    0.89340    1.000
    H38      H        0.41710    0.47960    0.02040    1.000
    O39      O        0.35791    0.94551    0.41895    1.000
    O40      O        0.38770    0.01700    0.39713    1.000
    C58      C        0.35423    0.98789    0.40286    1.000
    C59      C        0.30474    0.00178    0.38834    1.000
    C60      C        0.26248    0.97816    0.38480    1.000
    H39      H        0.25630    0.94560    0.39340    1.000
    H40      H        0.41710    0.97960    0.52040    1.000
    O41      O        0.35791    0.55449    0.08105    1.000
    O42      O        0.38770    0.48300    0.10287    1.000
    C61      C        0.35423    0.51211    0.09714    1.000
    C62      C        0.30474    0.49822    0.11166    1.000
    C63      C        0.26248    0.52184    0.11520    1.000
    H41      H        0.25630    0.55440    0.10660    1.000
    H42      H        0.41710    0.52040    0.97960    1.000
    O43      O        0.35791    0.05449    0.58105    1.000
    O44      O        0.38770    0.98300    0.60287    1.000
    C64      C        0.35423    0.01211    0.59714    1.000
    C65      C        0.30474    0.99822    0.61166    1.000
    C66      C        0.26248    0.02184    0.61520    1.000
    H43      H        0.25630    0.05440    0.60660    1.000
    H44      H        0.41710    0.02040    0.47960    1.000
    O45      O        0.85791    0.55449    0.58105    1.000
    O46      O        0.88770    0.48300    0.60287    1.000
    C67      C        0.85423    0.51211    0.59714    1.000
    C68      C        0.80474    0.49822    0.61166    1.000
    C69      C        0.76248    0.52184    0.61520    1.000
    H45      H        0.75630    0.55440    0.60660    1.000
    H46      H        0.91710    0.52040    0.47960    1.000
    O47      O        0.85791    0.05449    0.08105    1.000
    O48      O        0.88770    0.98300    0.10287    1.000
    C70      C        0.85423    0.01211    0.09714    1.000
    C71      C        0.80474    0.99822    0.11166    1.000
    C72      C        0.76248    0.02184    0.11520    1.000
    H47      H        0.75630    0.05440    0.10660    1.000
    H48      H        0.91710    0.02040    0.97960    1.000
    O49      O        0.14209    0.05449    0.91895    1.000
    O50      O        0.11230    0.98300    0.89713    1.000
    C73      C        0.14577    0.01211    0.90286    1.000
    C74      C        0.19526    0.99822    0.88834    1.000
    C75      C        0.23752    0.02184    0.88480    1.000
    H49      H        0.24370    0.05440    0.89340    1.000
    H50      H        0.08290    0.02040    0.02040    1.000
    O51      O        0.14209    0.55449    0.41895    1.000
    O52      O        0.11230    0.48300    0.39713    1.000
    C76      C        0.14577    0.51211    0.40286    1.000
    C77      C        0.19526    0.49822    0.38834    1.000
    C78      C        0.23752    0.52184    0.38480    1.000
    H51      H        0.24370    0.55440    0.39340    1.000
    H52      H        0.08290    0.52040    0.52040    1.000
    O53      O        0.64209    0.05449    0.41895    1.000
    O54      O        0.61230    0.98300    0.39713    1.000
    C79      C        0.64577    0.01211    0.40286    1.000
    C80      C        0.69526    0.99822    0.38834    1.000
    C81      C        0.73752    0.02184    0.38480    1.000
    H53      H        0.74370    0.05440    0.39340    1.000
    H54      H        0.58290    0.02040    0.52040    1.000
    O55      O        0.64209    0.55449    0.91895    1.000
    O56      O        0.61230    0.48300    0.89713    1.000
    C82      C        0.64577    0.51211    0.90286    1.000
    C83      C        0.69526    0.49822    0.88834    1.000
    C84      C        0.73752    0.52184    0.88480    1.000
    H55      H        0.74370    0.55440    0.89340    1.000
    H56      H        0.58290    0.52040    0.02040    1.000
    O57      O        0.64209    0.94551    0.58105    1.000
    O58      O        0.61230    0.01700    0.60287    1.000
    C85      C        0.64577    0.98789    0.59714    1.000
    C86      C        0.69526    0.00178    0.61166    1.000
    C87      C        0.73752    0.97816    0.61520    1.000
    H57      H        0.74370    0.94560    0.60660    1.000
    H58      H        0.58290    0.97960    0.47960    1.000
    O59      O        0.64209    0.44551    0.08105    1.000
    O60      O        0.61230    0.51700    0.10287    1.000
    C88      C        0.64577    0.48789    0.09714    1.000
    C89      C        0.69526    0.50178    0.11166    1.000
    C90      C        0.73752    0.47816    0.11520    1.000
    H59      H        0.74370    0.44560    0.10660    1.000
    H60      H        0.58290    0.47960    0.97960    1.000
    O61      O        0.14209    0.94551    0.08105    1.000
    O62      O        0.11230    0.01700    0.10287    1.000
    C91      C        0.14577    0.98789    0.09714    1.000
    C92      C        0.19526    0.00178    0.11166    1.000
    C93      C        0.23752    0.97816    0.11520    1.000
    H61      H        0.24370    0.94560    0.10660    1.000
    H62      H        0.08290    0.97960    0.97960    1.000
    O63      O        0.14209    0.44551    0.58105    1.000
    O64      O        0.11230    0.51700    0.60287    1.000
    C94      C        0.14577    0.48789    0.59714    1.000
    C95      C        0.19526    0.50178    0.61166    1.000
    C96      C        0.23752    0.47816    0.61520    1.000
    H63      H        0.24370    0.44560    0.60660    1.000
    H64      H        0.08290    0.47960    0.47960    1.000
    O65      O        0.41895    0.85791    0.44551    1.000
    O66      O        0.39713    0.88770    0.51700    1.000
    C97      C        0.40286    0.85423    0.48789    1.000
    C98      C        0.38834    0.80474    0.50178    1.000
    C99      C        0.38480    0.76248    0.47816    1.000
    H65      H        0.39340    0.75630    0.44560    1.000
    H66      H        0.52040    0.91710    0.47960    1.000
    O67      O        0.41895    0.35791    0.94551    1.000
    O68      O        0.39713    0.38770    0.01700    1.000
    C100     C        0.40286    0.35423    0.98789    1.000
    C101     C        0.38834    0.30474    0.00178    1.000
    C102     C        0.38480    0.26248    0.97816    1.000
    H67      H        0.39340    0.25630    0.94560    1.000
    H68      H        0.52040    0.41710    0.97960    1.000
    O69      O        0.91895    0.85791    0.94551    1.000
    O70      O        0.89713    0.88770    0.01700    1.000
    C103     C        0.90286    0.85423    0.98789    1.000
    C104     C        0.88834    0.80474    0.00178    1.000
    C105     C        0.88480    0.76248    0.97816    1.000
    H69      H        0.89340    0.75630    0.94560    1.000
    H70      H        0.02040    0.91710    0.97960    1.000
    O71      O        0.91895    0.35791    0.44551    1.000
    O72      O        0.89713    0.38770    0.51700    1.000
    C106     C        0.90286    0.35423    0.48789    1.000
    C107     C        0.88834    0.30474    0.50178    1.000
    C108     C        0.88480    0.26248    0.47816    1.000
    H71      H        0.89340    0.25630    0.44560    1.000
    H72      H        0.02040    0.41710    0.47960    1.000
    O73      O        0.08105    0.35791    0.55449    1.000
    O74      O        0.10287    0.38770    0.48300    1.000
    C109     C        0.09714    0.35423    0.51211    1.000
    C110     C        0.11166    0.30474    0.49822    1.000
    C111     C        0.11520    0.26248    0.52184    1.000
    H73      H        0.10660    0.25630    0.55440    1.000
    H74      H        0.97960    0.41710    0.52040    1.000
    O75      O        0.08105    0.85791    0.05449    1.000
    O76      O        0.10287    0.88770    0.98300    1.000
    C112     C        0.09714    0.85423    0.01211    1.000
    C113     C        0.11166    0.80474    0.99822    1.000
    C114     C        0.11520    0.76248    0.02184    1.000
    H75      H        0.10660    0.75630    0.05440    1.000
    H76      H        0.97960    0.91710    0.02040    1.000
    O77      O        0.58105    0.35791    0.05449    1.000
    O78      O        0.60287    0.38770    0.98300    1.000
    C115     C        0.59714    0.35423    0.01211    1.000
    C116     C        0.61166    0.30474    0.99822    1.000
    C117     C        0.61520    0.26248    0.02184    1.000
    H77      H        0.60660    0.25630    0.05440    1.000
    H78      H        0.47960    0.41710    0.02040    1.000
    O79      O        0.58105    0.85791    0.55449    1.000
    O80      O        0.60287    0.88770    0.48300    1.000
    C118     C        0.59714    0.85423    0.51211    1.000
    C119     C        0.61166    0.80474    0.49822    1.000
    C120     C        0.61520    0.76248    0.52184    1.000
    H79      H        0.60660    0.75630    0.55440    1.000
    H80      H        0.47960    0.91710    0.52040    1.000
    O81      O        0.91895    0.14209    0.05449    1.000
    O82      O        0.89713    0.11230    0.98300    1.000
    C121     C        0.90286    0.14577    0.01211    1.000
    C122     C        0.88834    0.19526    0.99822    1.000
    C123     C        0.88480    0.23752    0.02184    1.000
    H81      H        0.89340    0.24370    0.05440    1.000
    H82      H        0.02040    0.08290    0.02040    1.000
    O83      O        0.91895    0.64209    0.55449    1.000
    O84      O        0.89713    0.61230    0.48300    1.000
    C124     C        0.90286    0.64577    0.51211    1.000
    C125     C        0.88834    0.69526    0.49822    1.000
    C126     C        0.88480    0.73752    0.52184    1.000
    H83      H        0.89340    0.74370    0.55440    1.000
    H84      H        0.02040    0.58290    0.52040    1.000
    O85      O        0.41895    0.14209    0.55449    1.000
    O86      O        0.39713    0.11230    0.48300    1.000
    C127     C        0.40286    0.14577    0.51211    1.000
    C128     C        0.38834    0.19526    0.49822    1.000
    C129     C        0.38480    0.23752    0.52184    1.000
    H85      H        0.39340    0.24370    0.55440    1.000
    H86      H        0.52040    0.08290    0.52040    1.000
    O87      O        0.41895    0.64209    0.05449    1.000
    O88      O        0.39713    0.61230    0.98300    1.000
    C130     C        0.40286    0.64577    0.01211    1.000
    C131     C        0.38834    0.69526    0.99822    1.000
    C132     C        0.38480    0.73752    0.02184    1.000
    H87      H        0.39340    0.74370    0.05440    1.000
    H88      H        0.52040    0.58290    0.02040    1.000
    O89      O        0.58105    0.64209    0.94551    1.000
    O90      O        0.60287    0.61230    0.01700    1.000
    C133     C        0.59714    0.64577    0.98789    1.000
    C134     C        0.61166    0.69526    0.00178    1.000
    C135     C        0.61520    0.73752    0.97816    1.000
    H89      H        0.60660    0.74370    0.94560    1.000
    H90      H        0.47960    0.58290    0.97960    1.000
    O91      O        0.58105    0.14209    0.44551    1.000
    O92      O        0.60287    0.11230    0.51700    1.000
    C136     C        0.59714    0.14577    0.48789    1.000
    C137     C        0.61166    0.19526    0.50178    1.000
    C138     C        0.61520    0.23752    0.47816    1.000
    H91      H        0.60660    0.24370    0.44560    1.000
    H92      H        0.47960    0.08290    0.47960    1.000
    O93      O        0.08105    0.64209    0.44551    1.000
    O94      O        0.10287    0.61230    0.51700    1.000
    C139     C        0.09714    0.64577    0.48789    1.000
    C140     C        0.11166    0.69526    0.50178    1.000
    C141     C        0.11520    0.73752    0.47816    1.000
    H93      H        0.10660    0.74370    0.44560    1.000
    H94      H        0.97960    0.58290    0.47960    1.000
    O95      O        0.08105    0.14209    0.94551    1.000
    O96      O        0.10287    0.11230    0.01700    1.000
    C142     C        0.09714    0.14577    0.98789    1.000
    C143     C        0.11166    0.19526    0.00178    1.000
    C144     C        0.11520    0.23752    0.97816    1.000
    H95      H        0.10660    0.24370    0.94560    1.000
    H96      H        0.97960    0.08290    0.97960    1.000
    O97      O        0.16895    0.69551    0.89209    1.000
    O98      O        0.14713    0.76700    0.86230    1.000
    C145     C        0.15286    0.73789    0.89577    1.000
    C146     C        0.13834    0.75178    0.94526    1.000
    C147     C        0.13480    0.72816    0.98752    1.000
    H97      H        0.14340    0.69560    0.99370    1.000
    H98      H        0.27040    0.72960    0.83290    1.000
    O99      O        0.16895    0.19551    0.39209    1.000
    O100     O        0.14713    0.26700    0.36230    1.000
    C148     C        0.15286    0.23789    0.39577    1.000
    C149     C        0.13834    0.25178    0.44526    1.000
    C150     C        0.13480    0.22816    0.48752    1.000
    H99      H        0.14340    0.19560    0.49370    1.000
    H100     H        0.27040    0.22960    0.33290    1.000
    O101     O        0.66895    0.69551    0.39209    1.000
    O102     O        0.64713    0.76700    0.36230    1.000
    C151     C        0.65286    0.73789    0.39577    1.000
    C152     C        0.63834    0.75178    0.44526    1.000
    C153     C        0.63480    0.72816    0.48752    1.000
    H101     H        0.64340    0.69560    0.49370    1.000
    H102     H        0.77040    0.72960    0.33290    1.000
    O103     O        0.66895    0.19551    0.89209    1.000
    O104     O        0.64713    0.26700    0.86230    1.000
    C154     C        0.65286    0.23789    0.89577    1.000
    C155     C        0.63834    0.25178    0.94526    1.000
    C156     C        0.63480    0.22816    0.98752    1.000
    H103     H        0.64340    0.19560    0.99370    1.000
    H104     H        0.77040    0.22960    0.83290    1.000
    O105     O        0.83105    0.80449    0.39209    1.000
    O106     O        0.85287    0.73300    0.36230    1.000
    C157     C        0.84714    0.76211    0.39577    1.000
    C158     C        0.86166    0.74822    0.44526    1.000
    C159     C        0.86520    0.77184    0.48752    1.000
    H105     H        0.85660    0.80440    0.49370    1.000
    H106     H        0.72960    0.77040    0.33290    1.000
    O107     O        0.83105    0.30449    0.89209    1.000
    O108     O        0.85287    0.23300    0.86230    1.000
    C160     C        0.84714    0.26211    0.89577    1.000
    C161     C        0.86166    0.24822    0.94526    1.000
    C162     C        0.86520    0.27184    0.98752    1.000
    H107     H        0.85660    0.30440    0.99370    1.000
    H108     H        0.72960    0.27040    0.83290    1.000
    O109     O        0.33105    0.80449    0.89209    1.000
    O110     O        0.35287    0.73300    0.86230    1.000
    C163     C        0.34714    0.76211    0.89577    1.000
    C164     C        0.36166    0.74822    0.94526    1.000
    C165     C        0.36520    0.77184    0.98752    1.000
    H109     H        0.35660    0.80440    0.99370    1.000
    H110     H        0.22960    0.77040    0.83290    1.000
    O111     O        0.33105    0.30449    0.39209    1.000
    O112     O        0.35287    0.23300    0.36230    1.000
    C166     C        0.34714    0.26211    0.39577    1.000
    C167     C        0.36166    0.24822    0.44526    1.000
    C168     C        0.36520    0.27184    0.48752    1.000
    H111     H        0.35660    0.30440    0.49370    1.000
    H112     H        0.22960    0.27040    0.33290    1.000
    O113     O        0.66895    0.30449    0.60791    1.000
    O114     O        0.64713    0.23300    0.63770    1.000
    C169     C        0.65286    0.26211    0.60423    1.000
    C170     C        0.63834    0.24822    0.55474    1.000
    C171     C        0.63480    0.27184    0.51248    1.000
    H113     H        0.64340    0.30440    0.50630    1.000
    H114     H        0.77040    0.27040    0.66710    1.000
    O115     O        0.66895    0.80449    0.10791    1.000
    O116     O        0.64713    0.73300    0.13770    1.000
    C172     C        0.65286    0.76211    0.10423    1.000
    C173     C        0.63834    0.74822    0.05474    1.000
    C174     C        0.63480    0.77184    0.01248    1.000
    H115     H        0.64340    0.80440    0.00630    1.000
    H116     H        0.77040    0.77040    0.16710    1.000
    O117     O        0.16895    0.30449    0.10791    1.000
    O118     O        0.14713    0.23300    0.13770    1.000
    C175     C        0.15286    0.26211    0.10423    1.000
    C176     C        0.13834    0.24822    0.05474    1.000
    C177     C        0.13480    0.27184    0.01248    1.000
    H117     H        0.14340    0.30440    0.00630    1.000
    H118     H        0.27040    0.27040    0.16710    1.000
    O119     O        0.16895    0.80449    0.60791    1.000
    O120     O        0.14713    0.73300    0.63770    1.000
    C178     C        0.15286    0.76211    0.60423    1.000
    C179     C        0.13834    0.74822    0.55474    1.000
    C180     C        0.13480    0.77184    0.51248    1.000
    H119     H        0.14340    0.80440    0.50630    1.000
    H120     H        0.27040    0.77040    0.66710    1.000
    O121     O        0.33105    0.19551    0.10791    1.000
    O122     O        0.35287    0.26700    0.13770    1.000
    C181     C        0.34714    0.23789    0.10423    1.000
    C182     C        0.36166    0.25178    0.05474    1.000
    C183     C        0.36520    0.22816    0.01248    1.000
    H121     H        0.35660    0.19560    0.00630    1.000
    H122     H        0.22960    0.22960    0.16710    1.000
    O123     O        0.33105    0.69551    0.60791    1.000
    O124     O        0.35287    0.76700    0.63770    1.000
    C184     C        0.34714    0.73789    0.60423    1.000
    C185     C        0.36166    0.75178    0.55474    1.000
    C186     C        0.36520    0.72816    0.51248    1.000
    H123     H        0.35660    0.69560    0.50630    1.000
    H124     H        0.22960    0.72960    0.66710    1.000
    O125     O        0.83105    0.19551    0.60791    1.000
    O126     O        0.85287    0.26700    0.63770    1.000
    C187     C        0.84714    0.23789    0.60423    1.000
    C188     C        0.86166    0.25178    0.55474    1.000
    C189     C        0.86520    0.22816    0.51248    1.000
    H125     H        0.85660    0.19560    0.50630    1.000
    H126     H        0.72960    0.22960    0.66710    1.000
    O127     O        0.83105    0.69551    0.10791    1.000
    O128     O        0.85287    0.76700    0.13770    1.000
    C190     C        0.84714    0.73789    0.10423    1.000
    C191     C        0.86166    0.75178    0.05474    1.000
    C192     C        0.86520    0.72816    0.01248    1.000
    H127     H        0.85660    0.69560    0.00630    1.000
    H128     H        0.72960    0.72960    0.16710    1.000
    O129     O        0.19551    0.10791    0.33105    1.000
    O130     O        0.26700    0.13770    0.35287    1.000
    C193     C        0.23789    0.10423    0.34714    1.000
    C194     C        0.25178    0.05474    0.36166    1.000
    C195     C        0.22816    0.01248    0.36520    1.000
    H129     H        0.19560    0.00630    0.35660    1.000
    H130     H        0.22960    0.16710    0.22960    1.000
    O131     O        0.19551    0.60791    0.83105    1.000
    O132     O        0.26700    0.63770    0.85287    1.000
    C196     C        0.23789    0.60423    0.84714    1.000
    C197     C        0.25178    0.55474    0.86166    1.000
    C198     C        0.22816    0.51248    0.86520    1.000
    H131     H        0.19560    0.50630    0.85660    1.000
    H132     H        0.22960    0.66710    0.72960    1.000
    O133     O        0.69551    0.10791    0.83105    1.000
    O134     O        0.76700    0.13770    0.85287    1.000
    C199     C        0.73789    0.10423    0.84714    1.000
    C200     C        0.75178    0.05474    0.86166    1.000
    C201     C        0.72816    0.01248    0.86520    1.000
    H133     H        0.69560    0.00630    0.85660    1.000
    H134     H        0.72960    0.16710    0.72960    1.000
    O135     O        0.69551    0.60791    0.33105    1.000
    O136     O        0.76700    0.63770    0.35287    1.000
    C202     C        0.73789    0.60423    0.34714    1.000
    C203     C        0.75178    0.55474    0.36166    1.000
    C204     C        0.72816    0.51248    0.36520    1.000
    H135     H        0.69560    0.50630    0.35660    1.000
    H136     H        0.72960    0.66710    0.22960    1.000
    O137     O        0.30449    0.60791    0.66895    1.000
    O138     O        0.23300    0.63770    0.64713    1.000
    C205     C        0.26211    0.60423    0.65286    1.000
    C206     C        0.24822    0.55474    0.63834    1.000
    C207     C        0.27184    0.51248    0.63480    1.000
    H137     H        0.30440    0.50630    0.64340    1.000
    H138     H        0.27040    0.66710    0.77040    1.000
    O139     O        0.30449    0.10791    0.16895    1.000
    O140     O        0.23300    0.13770    0.14713    1.000
    C208     C        0.26211    0.10423    0.15286    1.000
    C209     C        0.24822    0.05474    0.13834    1.000
    C210     C        0.27184    0.01248    0.13480    1.000
    H139     H        0.30440    0.00630    0.14340    1.000
    H140     H        0.27040    0.16710    0.27040    1.000
    O141     O        0.80449    0.60791    0.16895    1.000
    O142     O        0.73300    0.63770    0.14713    1.000
    C211     C        0.76211    0.60423    0.15286    1.000
    C212     C        0.74822    0.55474    0.13834    1.000
    C213     C        0.77184    0.51248    0.13480    1.000
    H141     H        0.80440    0.50630    0.14340    1.000
    H142     H        0.77040    0.66710    0.27040    1.000
    O143     O        0.80449    0.10791    0.66895    1.000
    O144     O        0.73300    0.13770    0.64713    1.000
    C214     C        0.76211    0.10423    0.65286    1.000
    C215     C        0.74822    0.05474    0.63834    1.000
    C216     C        0.77184    0.01248    0.63480    1.000
    H143     H        0.80440    0.00630    0.64340    1.000
    H144     H        0.77040    0.16710    0.77040    1.000
    O145     O        0.80449    0.39209    0.83105    1.000
    O146     O        0.73300    0.36230    0.85287    1.000
    C217     C        0.76211    0.39577    0.84714    1.000
    C218     C        0.74822    0.44526    0.86166    1.000
    C219     C        0.77184    0.48752    0.86520    1.000
    H145     H        0.80440    0.49370    0.85660    1.000
    H146     H        0.77040    0.33290    0.72960    1.000
    O147     O        0.80449    0.89209    0.33105    1.000
    O148     O        0.73300    0.86230    0.35287    1.000
    C220     C        0.76211    0.89577    0.34714    1.000
    C221     C        0.74822    0.94526    0.36166    1.000
    C222     C        0.77184    0.98752    0.36520    1.000
    H147     H        0.80440    0.99370    0.35660    1.000
    H148     H        0.77040    0.83290    0.22960    1.000
    O149     O        0.30449    0.39209    0.33105    1.000
    O150     O        0.23300    0.36230    0.35287    1.000
    C223     C        0.26211    0.39577    0.34714    1.000
    C224     C        0.24822    0.44526    0.36166    1.000
    C225     C        0.27184    0.48752    0.36520    1.000
    H149     H        0.30440    0.49370    0.35660    1.000
    H150     H        0.27040    0.33290    0.22960    1.000
    O151     O        0.30449    0.89209    0.83105    1.000
    O152     O        0.23300    0.86230    0.85287    1.000
    C226     C        0.26211    0.89577    0.84714    1.000
    C227     C        0.24822    0.94526    0.86166    1.000
    C228     C        0.27184    0.98752    0.86520    1.000
    H151     H        0.30440    0.99370    0.85660    1.000
    H152     H        0.27040    0.83290    0.72960    1.000
    O153     O        0.69551    0.89209    0.16895    1.000
    O154     O        0.76700    0.86230    0.14713    1.000
    C229     C        0.73789    0.89577    0.15286    1.000
    C230     C        0.75178    0.94526    0.13834    1.000
    C231     C        0.72816    0.98752    0.13480    1.000
    H153     H        0.69560    0.99370    0.14340    1.000
    H154     H        0.72960    0.83290    0.27040    1.000
    O155     O        0.69551    0.39209    0.66895    1.000
    O156     O        0.76700    0.36230    0.64713    1.000
    C232     C        0.73789    0.39577    0.65286    1.000
    C233     C        0.75178    0.44526    0.63834    1.000
    C234     C        0.72816    0.48752    0.63480    1.000
    H155     H        0.69560    0.49370    0.64340    1.000
    H156     H        0.72960    0.33290    0.77040    1.000
    O157     O        0.19551    0.89209    0.66895    1.000
    O158     O        0.26700    0.86230    0.64713    1.000
    C235     C        0.23789    0.89577    0.65286    1.000
    C236     C        0.25178    0.94526    0.63834    1.000
    C237     C        0.22816    0.98752    0.63480    1.000
    H157     H        0.19560    0.99370    0.64340    1.000
    H158     H        0.22960    0.83290    0.77040    1.000
    O159     O        0.19551    0.39209    0.16895    1.000
    O160     O        0.26700    0.36230    0.14713    1.000
    C238     C        0.23789    0.39577    0.15286    1.000
    C239     C        0.25178    0.44526    0.13834    1.000
    C240     C        0.22816    0.48752    0.13480    1.000
    H159     H        0.19560    0.49370    0.14340    1.000
    H160     H        0.22960    0.33290    0.27040    1.000
    O161     O        0.60791    0.66895    0.30449    1.000
    O162     O        0.63770    0.64713    0.23300    1.000
    C241     C        0.60423    0.65286    0.26211    1.000
    C242     C        0.55474    0.63834    0.24822    1.000
    C243     C        0.51248    0.63480    0.27184    1.000
    H161     H        0.50630    0.64340    0.30440    1.000
    H162     H        0.66710    0.77040    0.27040    1.000
    O163     O        0.60791    0.16895    0.80449    1.000
    O164     O        0.63770    0.14713    0.73300    1.000
    C244     C        0.60423    0.15286    0.76211    1.000
    C245     C        0.55474    0.13834    0.74822    1.000
    C246     C        0.51248    0.13480    0.77184    1.000
    H163     H        0.50630    0.14340    0.80440    1.000
    H164     H        0.66710    0.27040    0.77040    1.000
    O165     O        0.10791    0.66895    0.80449    1.000
    O166     O        0.13770    0.64713    0.73300    1.000
    C247     C        0.10423    0.65286    0.76211    1.000
    C248     C        0.05474    0.63834    0.74822    1.000
    C249     C        0.01248    0.63480    0.77184    1.000
    H165     H        0.00630    0.64340    0.80440    1.000
    H166     H        0.16710    0.77040    0.77040    1.000
    O167     O        0.10791    0.16895    0.30449    1.000
    O168     O        0.13770    0.14713    0.23300    1.000
    C250     C        0.10423    0.15286    0.26211    1.000
    C251     C        0.05474    0.13834    0.24822    1.000
    C252     C        0.01248    0.13480    0.27184    1.000
    H167     H        0.00630    0.14340    0.30440    1.000
    H168     H        0.16710    0.27040    0.27040    1.000
    O169     O        0.10791    0.33105    0.19551    1.000
    O170     O        0.13770    0.35287    0.26700    1.000
    C253     C        0.10423    0.34714    0.23789    1.000
    C254     C        0.05474    0.36166    0.25178    1.000
    C255     C        0.01248    0.36520    0.22816    1.000
    H169     H        0.00630    0.35660    0.19560    1.000
    H170     H        0.16710    0.22960    0.22960    1.000
    O171     O        0.10791    0.83105    0.69551    1.000
    O172     O        0.13770    0.85287    0.76700    1.000
    C256     C        0.10423    0.84714    0.73789    1.000
    C257     C        0.05474    0.86166    0.75178    1.000
    C258     C        0.01248    0.86520    0.72816    1.000
    H171     H        0.00630    0.85660    0.69560    1.000
    H172     H        0.16710    0.72960    0.72960    1.000
    O173     O        0.60791    0.33105    0.69551    1.000
    O174     O        0.63770    0.35287    0.76700    1.000
    C259     C        0.60423    0.34714    0.73789    1.000
    C260     C        0.55474    0.36166    0.75178    1.000
    C261     C        0.51248    0.36520    0.72816    1.000
    H173     H        0.50630    0.35660    0.69560    1.000
    H174     H        0.66710    0.22960    0.72960    1.000
    O175     O        0.60791    0.83105    0.19551    1.000
    O176     O        0.63770    0.85287    0.26700    1.000
    C262     C        0.60423    0.84714    0.23789    1.000
    C263     C        0.55474    0.86166    0.25178    1.000
    C264     C        0.51248    0.86520    0.22816    1.000
    H175     H        0.50630    0.85660    0.19560    1.000
    H176     H        0.66710    0.72960    0.22960    1.000
    O177     O        0.89209    0.16895    0.69551    1.000
    O178     O        0.86230    0.14713    0.76700    1.000
    C265     C        0.89577    0.15286    0.73789    1.000
    C266     C        0.94526    0.13834    0.75178    1.000
    C267     C        0.98752    0.13480    0.72816    1.000
    H177     H        0.99370    0.14340    0.69560    1.000
    H178     H        0.83290    0.27040    0.72960    1.000
    O179     O        0.89209    0.66895    0.19551    1.000
    O180     O        0.86230    0.64713    0.26700    1.000
    C268     C        0.89577    0.65286    0.23789    1.000
    C269     C        0.94526    0.63834    0.25178    1.000
    C270     C        0.98752    0.63480    0.22816    1.000
    H179     H        0.99370    0.64340    0.19560    1.000
    H180     H        0.83290    0.77040    0.22960    1.000
    O181     O        0.39209    0.16895    0.19551    1.000
    O182     O        0.36230    0.14713    0.26700    1.000
    C271     C        0.39577    0.15286    0.23789    1.000
    C272     C        0.44526    0.13834    0.25178    1.000
    C273     C        0.48752    0.13480    0.22816    1.000
    H181     H        0.49370    0.14340    0.19560    1.000
    H182     H        0.33290    0.27040    0.22960    1.000
    O183     O        0.39209    0.66895    0.69551    1.000
    O184     O        0.36230    0.64713    0.76700    1.000
    C274     C        0.39577    0.65286    0.73789    1.000
    C275     C        0.44526    0.63834    0.75178    1.000
    C276     C        0.48752    0.63480    0.72816    1.000
    H183     H        0.49370    0.64340    0.69560    1.000
    H184     H        0.33290    0.77040    0.72960    1.000
    O185     O        0.39209    0.83105    0.80449    1.000
    O186     O        0.36230    0.85287    0.73300    1.000
    C277     C        0.39577    0.84714    0.76211    1.000
    C278     C        0.44526    0.86166    0.74822    1.000
    C279     C        0.48752    0.86520    0.77184    1.000
    H185     H        0.49370    0.85660    0.80440    1.000
    H186     H        0.33290    0.72960    0.77040    1.000
    O187     O        0.39209    0.33105    0.30449    1.000
    O188     O        0.36230    0.35287    0.23300    1.000
    C280     C        0.39577    0.34714    0.26211    1.000
    C281     C        0.44526    0.36166    0.24822    1.000
    C282     C        0.48752    0.36520    0.27184    1.000
    H187     H        0.49370    0.35660    0.30440    1.000
    H188     H        0.33290    0.22960    0.27040    1.000
    O189     O        0.89209    0.83105    0.30449    1.000
    O190     O        0.86230    0.85287    0.23300    1.000
    C283     C        0.89577    0.84714    0.26211    1.000
    C284     C        0.94526    0.86166    0.24822    1.000
    C285     C        0.98752    0.86520    0.27184    1.000
    H189     H        0.99370    0.85660    0.30440    1.000
    H190     H        0.83290    0.72960    0.27040    1.000
    O191     O        0.89209    0.33105    0.80449    1.000
    O192     O        0.86230    0.35287    0.73300    1.000
    C286     C        0.89577    0.34714    0.76211    1.000
    C287     C        0.94526    0.36166    0.74822    1.000
    C288     C        0.98752    0.36520    0.77184    1.000
    H191     H        0.99370    0.35660    0.80440    1.000
    H192     H        0.83290    0.22960    0.77040    1.000
    Zn1      Zn       0.42520    0.42520    0.92520    1.000
    N1       N        0.46876    0.46876    0.96876    1.000
    Zn2      Zn       0.92520    0.92520    0.92520    1.000
    N2       N        0.96876    0.96876    0.96876    1.000
    Zn3      Zn       0.57480    0.07480    0.42520    1.000
    N3       N        0.53124    0.03124    0.46876    1.000
    Zn4      Zn       0.07480    0.92520    0.07480    1.000
    N4       N        0.03124    0.96876    0.03124    1.000
    Zn5      Zn       0.07480    0.42520    0.57480    1.000
    N5       N        0.03124    0.46876    0.53124    1.000
    Zn6      Zn       0.92520    0.57480    0.57480    1.000
    N6       N        0.96876    0.53124    0.53124    1.000
    Zn7      Zn       0.42520    0.57480    0.07480    1.000
    N7       N        0.46876    0.53124    0.03124    1.000
    Zn8      Zn       0.92520    0.42520    0.42520    1.000
    N8       N        0.96876    0.46876    0.46876    1.000
    Zn9      Zn       0.42520    0.07480    0.57480    1.000
    N9       N        0.46876    0.03124    0.53124    1.000
    Zn10     Zn       0.07480    0.07480    0.92520    1.000
    N10      N        0.03124    0.03124    0.96876    1.000
    Zn11     Zn       0.07480    0.57480    0.42520    1.000
    N11      N        0.03124    0.53124    0.46876    1.000
    Zn12     Zn       0.57480    0.92520    0.57480    1.000
    N12      N        0.53124    0.96876    0.53124    1.000
    Zn13     Zn       0.57480    0.42520    0.07480    1.000
    N13      N        0.53124    0.46876    0.03124    1.000
    Zn14     Zn       0.42520    0.92520    0.42520    1.000
    N14      N        0.46876    0.96876    0.46876    1.000
    Zn15     Zn       0.92520    0.07480    0.07480    1.000
    N15      N        0.96876    0.03124    0.03124    1.000
    Zn16     Zn       0.57480    0.57480    0.92520    1.000
    N16      N        0.53124    0.53124    0.96876    1.000
    Zn17     Zn       0.17520    0.67520    0.82480    1.000
    N17      N        0.21876    0.71876    0.78124    1.000
    Zn18     Zn       0.17520    0.17520    0.32480    1.000
    N18      N        0.21876    0.21876    0.28124    1.000
    Zn19     Zn       0.67520    0.67520    0.32480    1.000
    N19      N        0.71876    0.71876    0.28124    1.000
    Zn20     Zn       0.82480    0.82480    0.32480    1.000
    N20      N        0.78124    0.78124    0.28124    1.000
    Zn21     Zn       0.67520    0.32480    0.67520    1.000
    N21      N        0.71876    0.28124    0.71876    1.000
    Zn22     Zn       0.17520    0.82480    0.67520    1.000
    N22      N        0.21876    0.78124    0.71876    1.000
    Zn23     Zn       0.32480    0.17520    0.17520    1.000
    N23      N        0.28124    0.21876    0.21876    1.000
    Zn24     Zn       0.67520    0.17520    0.82480    1.000
    N24      N        0.71876    0.21876    0.78124    1.000
    Zn25     Zn       0.32480    0.67520    0.67520    1.000
    N25      N        0.28124    0.71876    0.71876    1.000
    Zn26     Zn       0.82480    0.32480    0.82480    1.000
    N26      N        0.78124    0.28124    0.78124    1.000
    Zn27     Zn       0.67520    0.82480    0.17520    1.000
    N27      N        0.71876    0.78124    0.21876    1.000
    Zn28     Zn       0.17520    0.32480    0.17520    1.000
    N28      N        0.21876    0.28124    0.21876    1.000
    Zn29     Zn       0.82480    0.17520    0.67520    1.000
    N29      N        0.78124    0.21876    0.71876    1.000
    Zn30     Zn       0.82480    0.67520    0.17520    1.000
    N30      N        0.78124    0.71876    0.21876    1.000
    Zn31     Zn       0.32480    0.82480    0.82480    1.000
    N31      N        0.28124    0.78124    0.78124    1.000
    Zn32     Zn       0.32480    0.32480    0.32480    1.000
    N32      N        0.28124    0.28124    0.28124    1.000
    O193     O        0.54898    0.37500    0.79898    1.000
    O194     O        0.54898    0.87500    0.29898    1.000
    O195     O        0.04898    0.37500    0.29898    1.000
    O196     O        0.45102    0.12500    0.29898    1.000
    O197     O        0.45102    0.62500    0.79898    1.000
    O198     O        0.95102    0.87500    0.20102    1.000
    O199     O        0.95102    0.37500    0.70102    1.000
    O200     O        0.04898    0.62500    0.70102    1.000
    O201     O        0.04898    0.12500    0.20102    1.000
    O202     O        0.79898    0.54898    0.37500    1.000
    O203     O        0.79898    0.04898    0.87500    1.000
    O204     O        0.29898    0.04898    0.37500    1.000
    O205     O        0.29898    0.45102    0.12500    1.000
    O206     O        0.29898    0.95102    0.62500    1.000
    O207     O        0.20102    0.95102    0.87500    1.000
    O208     O        0.20102    0.45102    0.37500    1.000
    O209     O        0.70102    0.04898    0.62500    1.000
    O210     O        0.70102    0.54898    0.12500    1.000
    O211     O        0.37500    0.79898    0.54898    1.000
    O212     O        0.37500    0.29898    0.04898    1.000
    O213     O        0.87500    0.79898    0.04898    1.000
    O214     O        0.12500    0.29898    0.45102    1.000
    O215     O        0.62500    0.29898    0.95102    1.000
    O216     O        0.87500    0.20102    0.95102    1.000
    O217     O        0.37500    0.20102    0.45102    1.000
    O218     O        0.62500    0.70102    0.04898    1.000
    O219     O        0.12500    0.70102    0.54898    1.000
    O220     O        0.12500    0.79898    0.95102    1.000
    O221     O        0.62500    0.79898    0.45102    1.000
    O222     O        0.87500    0.70102    0.45102    1.000
    O223     O        0.37500    0.70102    0.95102    1.000
    O224     O        0.62500    0.20102    0.54898    1.000
    O225     O        0.12500    0.20102    0.04898    1.000
    O226     O        0.87500    0.29898    0.54898    1.000
    O227     O        0.29898    0.54898    0.87500    1.000
    O228     O        0.20102    0.54898    0.62500    1.000
    O229     O        0.20102    0.04898    0.12500    1.000
    O230     O        0.70102    0.45102    0.87500    1.000
    O231     O        0.70102    0.95102    0.37500    1.000
    O232     O        0.79898    0.95102    0.12500    1.000
    O233     O        0.79898    0.45102    0.62500    1.000
    O234     O        0.54898    0.62500    0.20102    1.000
    O235     O        0.54898    0.12500    0.70102    1.000
    O236     O        0.04898    0.87500    0.79898    1.000
    O237     O        0.95102    0.12500    0.79898    1.000
    O238     O        0.95102    0.62500    0.29898    1.000
    O239     O        0.45102    0.87500    0.70102    1.000
    O240     O        0.45102    0.37500    0.20102    1.000
    C289     C        0.50000    0.50000    0.93804    1.000
    C290     C        0.00000    0.50000    0.43804    1.000
    C291     C        0.50000    0.00000    0.43804    1.000
    C292     C        0.00000    0.00000    0.93804    1.000
    C293     C        0.00000    0.00000    0.06196    1.000
    C294     C        0.50000    0.00000    0.56196    1.000
    C295     C        0.00000    0.50000    0.56196    1.000
    C296     C        0.50000    0.50000    0.06196    1.000
    C297     C        0.93804    0.50000    0.50000    1.000
    C298     C        0.93804    0.00000    0.00000    1.000
    C299     C        0.43804    0.50000    0.00000    1.000
    C300     C        0.43804    0.00000    0.50000    1.000
    C301     C        0.06196    0.00000    0.00000    1.000
    C302     C        0.06196    0.50000    0.50000    1.000
    C303     C        0.56196    0.00000    0.50000    1.000
    C304     C        0.56196    0.50000    0.00000    1.000
    C305     C        0.50000    0.93804    0.50000    1.000
    C306     C        0.50000    0.43804    0.00000    1.000
    C307     C        0.00000    0.43804    0.50000    1.000
    C308     C        0.00000    0.93804    0.00000    1.000
    C309     C        0.00000    0.06196    0.00000    1.000
    C310     C        0.00000    0.56196    0.50000    1.000
    C311     C        0.50000    0.56196    0.00000    1.000
    C312     C        0.50000    0.06196    0.50000    1.000
    C313     C        0.25000    0.75000    0.81196    1.000
    C314     C        0.25000    0.25000    0.31196    1.000
    C315     C        0.75000    0.75000    0.31196    1.000
    C316     C        0.75000    0.25000    0.81196    1.000
    C317     C        0.75000    0.25000    0.68804    1.000
    C318     C        0.75000    0.75000    0.18804    1.000
    C319     C        0.25000    0.25000    0.18804    1.000
    C320     C        0.25000    0.75000    0.68804    1.000
    C321     C        0.25000    0.18804    0.25000    1.000
    C322     C        0.75000    0.18804    0.75000    1.000
    C323     C        0.25000    0.68804    0.75000    1.000
    C324     C        0.75000    0.68804    0.25000    1.000
    C325     C        0.75000    0.31196    0.75000    1.000
    C326     C        0.25000    0.31196    0.25000    1.000
    C327     C        0.75000    0.81196    0.25000    1.000
    C328     C        0.25000    0.81196    0.75000    1.000
    C329     C        0.68804    0.75000    0.25000    1.000
    C330     C        0.68804    0.25000    0.75000    1.000
    C331     C        0.18804    0.25000    0.25000    1.000
    C332     C        0.18804    0.75000    0.75000    1.000
    C333     C        0.81196    0.25000    0.75000    1.000
    C334     C        0.81196    0.75000    0.25000    1.000
    C335     C        0.31196    0.75000    0.75000    1.000
    C336     C        0.31196    0.25000    0.25000    1.000
