# CIF file generated by openbabel 3.1.0, see https://openbabel.org
data_I
_chemical_name_common 'CODFEH_clean'
_cell_length_a 7.9539
_cell_length_b 7.9539
_cell_length_c 13.189
_cell_angle_alpha 90
_cell_angle_beta 90
_cell_angle_gamma 90
_space_group_name_H-M_alt 'P 1'
_space_group_name_Hall 'P 1'
loop_
    _symmetry_equiv_pos_as_xyz
    x,y,z
loop_
    _atom_site_label
    _atom_site_type_symbol
    _atom_site_fract_x
    _atom_site_fract_y
    _atom_site_fract_z
    _atom_site_occupancy
    Mn1      Mn       0.53510    0.13538    0.84223    1.000
    Mn2      Mn       0.46490    0.86462    0.34223    1.000
    Mn3      Mn       0.86462    0.53510    0.09223    1.000
    Mn4      Mn       0.13538    0.46490    0.59223    1.000
    H1       H        0.61100    0.08450    0.65070    1.000
    H2       H        0.70840    0.84600    0.63500    1.000
    H3       H        0.38900    0.75220    0.70940    1.000
    H4       H        0.52320    0.61600    0.68160    1.000
    H5       H        0.38900    0.91550    0.15070    1.000
    H6       H        0.29160    0.15400    0.13500    1.000
    H7       H        0.61100    0.24780    0.20940    1.000
    H8       H        0.47680    0.38400    0.18160    1.000
    H9       H        0.91550    0.61100    0.90070    1.000
    H10      H        0.15400    0.70840    0.88500    1.000
    H11      H        0.24780    0.38900    0.95940    1.000
    H12      H        0.38400    0.52320    0.93160    1.000
    H13      H        0.08450    0.38900    0.40070    1.000
    H14      H        0.84600    0.29160    0.38500    1.000
    H15      H        0.75220    0.61100    0.45940    1.000
    H16      H        0.61600    0.47680    0.43160    1.000
    C1       C        0.70740    0.81010    0.79040    1.000
    C2       C        0.62360    0.85300    0.68870    1.000
    C3       C        0.48370    0.72820    0.66540    1.000
    C4       C        0.42370    0.72990    0.55720    1.000
    C5       C        0.29260    0.18990    0.29040    1.000
    C6       C        0.37640    0.14700    0.18870    1.000
    C7       C        0.51630    0.27180    0.16540    1.000
    C8       C        0.57630    0.27010    0.05720    1.000
    C9       C        0.18990    0.70740    0.04040    1.000
    C10      C        0.14700    0.62360    0.93870    1.000
    C11      C        0.27180    0.48370    0.91540    1.000
    C12      C        0.27010    0.42370    0.80720    1.000
    C13      C        0.81010    0.29260    0.54040    1.000
    C14      C        0.85300    0.37640    0.43870    1.000
    C15      C        0.72820    0.51630    0.41540    1.000
    C16      C        0.72990    0.57630    0.30720    1.000
    O1       O        0.79190    0.68030    0.79160    1.000
    O2       O        0.68260    0.90430    0.86432    1.000
    O3       O        0.32160    0.62090    0.52941    1.000
    O4       O        0.48370    0.83690    0.49940    1.000
    O5       O        0.55900    0.02040    0.69164    1.000
    O6       O        0.20810    0.31970    0.29160    1.000
    O7       O        0.31740    0.09570    0.36432    1.000
    O8       O        0.67840    0.37910    0.02941    1.000
    O9       O        0.51630    0.16310    0.99940    1.000
    O10      O        0.44100    0.97960    0.19164    1.000
    O11      O        0.31970    0.79190    0.04160    1.000
    O12      O        0.09570    0.68260    0.11432    1.000
    O13      O        0.37910    0.32160    0.77941    1.000
    O14      O        0.16310    0.48370    0.74940    1.000
    O15      O        0.97960    0.55900    0.94164    1.000
    O16      O        0.68030    0.20810    0.54160    1.000
    O17      O        0.90430    0.31740    0.61432    1.000
    O18      O        0.62090    0.67840    0.27941    1.000
    O19      O        0.83690    0.51630    0.24940    1.000
    O20      O        0.02040    0.44100    0.44164    1.000
