# CIF file generated by openbabel 3.1.0, see https://openbabel.org
data_I
_chemical_name_common 'image0'
_cell_length_a 10.137
_cell_length_b 16.768
_cell_length_c 15.852
_cell_angle_alpha 90
_cell_angle_beta 94.166
_cell_angle_gamma 90
_space_group_name_H-M_alt 'P 1'
_space_group_name_Hall 'P 1'
loop_
    _symmetry_equiv_pos_as_xyz
    x,y,z
loop_
    _atom_site_label
    _atom_site_type_symbol
    _atom_site_fract_x
    _atom_site_fract_y
    _atom_site_fract_z
    _atom_site_occupancy
    Ni1      Ni       0.20999    0.22725    0.36763    1.000
    C1       C        0.63570    0.98588    0.73604    1.000
    H1       H        0.57880    0.01420    0.76840    1.000
    C2       C        0.62770    0.90770    0.71518    1.000
    H2       H        0.56250    0.87290    0.73120    1.000
    C3       C        0.79740    0.95323    0.65932    1.000
    H3       H        0.87280    0.95700    0.62950    1.000
    C4       C        0.78940    0.09816    0.70156    1.000
    H4       H        0.88520    0.09910    0.70260    1.000
    H5       H        0.76430    0.12270    0.75350    1.000
    C5       C        0.73240    0.14874    0.62566    1.000
    C6       C        0.77810    0.12225    0.54047    1.000
    H6       H        0.76010    0.06570    0.53420    1.000
    H7       H        0.72420    0.14960    0.49640    1.000
    C7       C        0.02860    0.09851    0.56210    1.000
    H8       H        0.03180    0.06220    0.60650    1.000
    C8       C        0.13100    0.12530    0.52092    1.000
    H9       H        0.21880    0.11100    0.53380    1.000
    C9       C        0.95920    0.18134    0.46252    1.000
    H10      H        0.90320    0.21250    0.42710    1.000
    C10      C        0.75880    0.23761    0.64486    1.000
    H11      H        0.73650    0.26790    0.59370    1.000
    H12      H        0.69960    0.25480    0.68670    1.000
    C11      C        0.98720    0.29546    0.63162    1.000
    H13      H        0.97860    0.30970    0.57480    1.000
    C12      C        0.09290    0.30795    0.68627    1.000
    H14      H        0.17090    0.33260    0.67290    1.000
    C13      C        0.94800    0.25020    0.75563    1.000
    H15      H        0.90460    0.22730    0.79930    1.000
    C14      C        0.58020    0.13697    0.62224    1.000
    H16      H        0.56040    0.08330    0.60240    1.000
    H17      H        0.55270    0.14080    0.67950    1.000
    C15      C        0.43980    0.25960    0.59690    1.000
    H18      H        0.45350    0.28290    0.65000    1.000
    C16      C        0.35710    0.28534    0.53238    1.000
    H19      H        0.30490    0.33090    0.53340    1.000
    C17      C        0.44800    0.17989    0.48942    1.000
    H20      H        0.47130    0.13740    0.45580    1.000
    C18      C        0.12750    0.40065    0.35322    1.000
    C19      C        0.06390    0.47220    0.39204    1.000
    H21      H        0.12400    0.51700    0.39000    1.000
    H22      H        0.98440    0.48570    0.35720    1.000
    C20      C        0.02770    0.46249    0.48123    1.000
    H23      H        0.10580    0.44610    0.51600    1.000
    H24      H        0.96270    0.42020    0.48310    1.000
    O1       O        0.13922    0.33816    0.39783    1.000
    O2       O        0.16464    0.40815    0.28010    1.000
    N1       N        0.74502    0.01488    0.69983    1.000
    N2       N        0.72969    0.88705    0.66676    1.000
    N3       N        0.91797    0.13567    0.52527    1.000
    N4       N        0.08839    0.17672    0.45716    1.000
    N5       N        0.89497    0.25787    0.67587    1.000
    N6       N        0.06880    0.27904    0.76445    1.000
    N7       N        0.49963    0.19249    0.56910    1.000
    N8       N        0.36106    0.23469    0.46500    1.000
    Ni2      Ni       0.79001    0.72725    0.13237    1.000
    C21      C        0.36430    0.48588    0.76396    1.000
    H25      H        0.42120    0.51420    0.73160    1.000
    C22      C        0.37230    0.40770    0.78482    1.000
    H26      H        0.43750    0.37290    0.76880    1.000
    C23      C        0.20260    0.45323    0.84068    1.000
    H27      H        0.12720    0.45700    0.87050    1.000
    C24      C        0.21060    0.59816    0.79844    1.000
    H28      H        0.11480    0.59910    0.79740    1.000
    H29      H        0.23570    0.62270    0.74650    1.000
    C25      C        0.26760    0.64874    0.87434    1.000
    C26      C        0.22190    0.62225    0.95953    1.000
    H30      H        0.23990    0.56570    0.96580    1.000
    H31      H        0.27580    0.64960    0.00360    1.000
    C27      C        0.97140    0.59851    0.93790    1.000
    H32      H        0.96820    0.56220    0.89350    1.000
    C28      C        0.86900    0.62530    0.97908    1.000
    H33      H        0.78120    0.61100    0.96620    1.000
    C29      C        0.04080    0.68134    0.03748    1.000
    H34      H        0.09680    0.71250    0.07290    1.000
    C30      C        0.24120    0.73761    0.85514    1.000
    H35      H        0.26350    0.76790    0.90630    1.000
    H36      H        0.30040    0.75480    0.81330    1.000
    C31      C        0.01280    0.79546    0.86838    1.000
    H37      H        0.02140    0.80970    0.92520    1.000
    C32      C        0.90710    0.80795    0.81373    1.000
    H38      H        0.82910    0.83260    0.82710    1.000
    C33      C        0.05200    0.75020    0.74437    1.000
    H39      H        0.09540    0.72730    0.70070    1.000
    C34      C        0.41980    0.63697    0.87776    1.000
    H40      H        0.43960    0.58330    0.89760    1.000
    H41      H        0.44730    0.64080    0.82050    1.000
    C35      C        0.56020    0.75960    0.90310    1.000
    H42      H        0.54650    0.78290    0.85000    1.000
    C36      C        0.64290    0.78534    0.96762    1.000
    H43      H        0.69510    0.83090    0.96660    1.000
    C37      C        0.55200    0.67989    0.01058    1.000
    H44      H        0.52870    0.63740    0.04420    1.000
    C38      C        0.87250    0.90065    0.14678    1.000
    C39      C        0.93610    0.97220    0.10796    1.000
    H45      H        0.87600    0.01700    0.11000    1.000
    H46      H        0.01560    0.98570    0.14280    1.000
    C40      C        0.97230    0.96249    0.01877    1.000
    H47      H        0.89420    0.94610    0.98400    1.000
    H48      H        0.03730    0.92020    0.01690    1.000
    O3       O        0.86078    0.83816    0.10217    1.000
    O4       O        0.83536    0.90815    0.21990    1.000
    N9       N        0.25498    0.51488    0.80017    1.000
    N10      N        0.27031    0.38705    0.83324    1.000
    N11      N        0.08203    0.63567    0.97473    1.000
    N12      N        0.91161    0.67672    0.04284    1.000
    N13      N        0.10503    0.75787    0.82413    1.000
    N14      N        0.93120    0.77904    0.73555    1.000
    N15      N        0.50037    0.69249    0.93090    1.000
    N16      N        0.63894    0.73469    0.03500    1.000
    Ni3      Ni       0.79001    0.77275    0.63237    1.000
    C41      C        0.36430    0.01412    0.26396    1.000
    H49      H        0.42120    0.98580    0.23160    1.000
    C42      C        0.37230    0.09230    0.28482    1.000
    H50      H        0.43750    0.12710    0.26880    1.000
    C43      C        0.20260    0.04677    0.34068    1.000
    H51      H        0.12720    0.04300    0.37050    1.000
    C44      C        0.21060    0.90184    0.29844    1.000
    H52      H        0.11480    0.90090    0.29740    1.000
    H53      H        0.23570    0.87730    0.24650    1.000
    C45      C        0.26760    0.85126    0.37434    1.000
    C46      C        0.22190    0.87775    0.45953    1.000
    H54      H        0.23990    0.93430    0.46580    1.000
    H55      H        0.27580    0.85040    0.50360    1.000
    C47      C        0.97140    0.90149    0.43790    1.000
    H56      H        0.96820    0.93780    0.39350    1.000
    C48      C        0.86900    0.87470    0.47908    1.000
    H57      H        0.78120    0.88900    0.46620    1.000
    C49      C        0.04080    0.81866    0.53748    1.000
    H58      H        0.09680    0.78750    0.57290    1.000
    C50      C        0.24120    0.76239    0.35514    1.000
    H59      H        0.26350    0.73210    0.40630    1.000
    H60      H        0.30040    0.74520    0.31330    1.000
    C51      C        0.01280    0.70454    0.36838    1.000
    H61      H        0.02140    0.69030    0.42520    1.000
    C52      C        0.90710    0.69205    0.31373    1.000
    H62      H        0.82910    0.66740    0.32710    1.000
    C53      C        0.05200    0.74980    0.24437    1.000
    H63      H        0.09540    0.77270    0.20070    1.000
    C54      C        0.41980    0.86303    0.37776    1.000
    H64      H        0.43960    0.91670    0.39760    1.000
    H65      H        0.44730    0.85920    0.32050    1.000
    C55      C        0.56020    0.74040    0.40310    1.000
    H66      H        0.54650    0.71710    0.35000    1.000
    C56      C        0.64290    0.71466    0.46762    1.000
    H67      H        0.69510    0.66910    0.46660    1.000
    C57      C        0.55200    0.82011    0.51058    1.000
    H68      H        0.52870    0.86260    0.54420    1.000
    C58      C        0.87250    0.59935    0.64678    1.000
    C59      C        0.93610    0.52780    0.60796    1.000
    H69      H        0.87600    0.48300    0.61000    1.000
    H70      H        0.01560    0.51430    0.64280    1.000
    C60      C        0.97230    0.53751    0.51877    1.000
    H71      H        0.89420    0.55390    0.48400    1.000
    H72      H        0.03730    0.57980    0.51690    1.000
    O5       O        0.86078    0.66184    0.60217    1.000
    O6       O        0.83536    0.59185    0.71990    1.000
    N17      N        0.25498    0.98512    0.30017    1.000
    N18      N        0.27031    0.11295    0.33324    1.000
    N19      N        0.08203    0.86433    0.47473    1.000
    N20      N        0.91161    0.82328    0.54284    1.000
    N21      N        0.10503    0.74213    0.32413    1.000
    N22      N        0.93120    0.72096    0.23555    1.000
    N23      N        0.50037    0.80751    0.43090    1.000
    N24      N        0.63894    0.76531    0.53500    1.000
    Ni4      Ni       0.20999    0.27275    0.86763    1.000
    C61      C        0.63570    0.51412    0.23604    1.000
    H73      H        0.57880    0.48580    0.26840    1.000
    C62      C        0.62770    0.59230    0.21518    1.000
    H74      H        0.56250    0.62710    0.23120    1.000
    C63      C        0.79740    0.54677    0.15932    1.000
    H75      H        0.87280    0.54300    0.12950    1.000
    C64      C        0.78940    0.40184    0.20156    1.000
    H76      H        0.88520    0.40090    0.20260    1.000
    H77      H        0.76430    0.37730    0.25350    1.000
    C65      C        0.73240    0.35126    0.12566    1.000
    C66      C        0.77810    0.37775    0.04047    1.000
    H78      H        0.76010    0.43430    0.03420    1.000
    H79      H        0.72420    0.35040    0.99640    1.000
    C67      C        0.02860    0.40149    0.06210    1.000
    H80      H        0.03180    0.43780    0.10650    1.000
    C68      C        0.13100    0.37470    0.02092    1.000
    H81      H        0.21880    0.38900    0.03380    1.000
    C69      C        0.95920    0.31866    0.96252    1.000
    H82      H        0.90320    0.28750    0.92710    1.000
    C70      C        0.75880    0.26239    0.14486    1.000
    H83      H        0.73650    0.23210    0.09370    1.000
    H84      H        0.69960    0.24520    0.18670    1.000
    C71      C        0.98720    0.20454    0.13162    1.000
    H85      H        0.97860    0.19030    0.07480    1.000
    C72      C        0.09290    0.19205    0.18627    1.000
    H86      H        0.17090    0.16740    0.17290    1.000
    C73      C        0.94800    0.24980    0.25563    1.000
    H87      H        0.90460    0.27270    0.29930    1.000
    C74      C        0.58020    0.36303    0.12224    1.000
    H88      H        0.56040    0.41670    0.10240    1.000
    H89      H        0.55270    0.35920    0.17950    1.000
    C75      C        0.43980    0.24040    0.09690    1.000
    H90      H        0.45350    0.21710    0.15000    1.000
    C76      C        0.35710    0.21466    0.03238    1.000
    H91      H        0.30490    0.16910    0.03340    1.000
    C77      C        0.44800    0.32011    0.98942    1.000
    H92      H        0.47130    0.36260    0.95580    1.000
    C78      C        0.12750    0.09935    0.85322    1.000
    C79      C        0.06390    0.02780    0.89204    1.000
    H93      H        0.12400    0.98300    0.89000    1.000
    H94      H        0.98440    0.01430    0.85720    1.000
    C80      C        0.02770    0.03751    0.98123    1.000
    H95      H        0.10580    0.05390    0.01600    1.000
    H96      H        0.96270    0.07980    0.98310    1.000
    O7       O        0.13922    0.16184    0.89783    1.000
    O8       O        0.16464    0.09185    0.78010    1.000
    N25      N        0.74502    0.48512    0.19983    1.000
    N26      N        0.72969    0.61295    0.16676    1.000
    N27      N        0.91797    0.36433    0.02527    1.000
    N28      N        0.08839    0.32328    0.95716    1.000
    N29      N        0.89497    0.24213    0.17587    1.000
    N30      N        0.06880    0.22096    0.26445    1.000
    N31      N        0.49963    0.30751    0.06910    1.000
    N32      N        0.36106    0.26531    0.96500    1.000
