# CIF file generated by openbabel 3.1.0, see https://openbabel.org
data_I
_chemical_name_common 'WOHZAU_clean'
_cell_length_a 9.0835
_cell_length_b 9.0835
_cell_length_c 15.9193
_cell_angle_alpha 88.4173
_cell_angle_beta 88.4173
_cell_angle_gamma 84.7717
_space_group_name_H-M_alt 'P 1'
_space_group_name_Hall 'P 1'
loop_
    _symmetry_equiv_pos_as_xyz
    x,y,z
loop_
    _atom_site_label
    _atom_site_type_symbol
    _atom_site_fract_x
    _atom_site_fract_y
    _atom_site_fract_z
    _atom_site_occupancy
    Er1      Er       0.47757    0.27785    0.01099    1.000
    Er2      Er       0.72215    0.52243    0.48901    1.000
    Er3      Er       0.52243    0.72215    0.98901    1.000
    Er4      Er       0.27785    0.47757    0.51099    1.000
    H1       H        0.74450    0.06530    0.77820    1.000
    H2       H        0.55500    0.84980    0.73270    1.000
    H3       H        0.71580    0.81100    0.76550    1.000
    H4       H        0.81480    0.93580    0.64680    1.000
    H5       H        0.51870    0.98170    0.58930    1.000
    H6       H        0.65750    0.02930    0.53800    1.000
    H7       H        0.69830    0.20530    0.63840    1.000
    H8       H        0.44490    0.12150    0.73050    1.000
    H9       H        0.54410    0.24410    0.75720    1.000
    H10      H        0.93470    0.25550    0.72180    1.000
    H11      H        0.15020    0.44500    0.76730    1.000
    H12      H        0.18900    0.28420    0.73450    1.000
    H13      H        0.06420    0.18520    0.85320    1.000
    H14      H        0.01830    0.48130    0.91070    1.000
    H15      H        0.97070    0.34250    0.96200    1.000
    H16      H        0.79470    0.30170    0.86160    1.000
    H17      H        0.87850    0.55510    0.76950    1.000
    H18      H        0.75590    0.45590    0.74280    1.000
    H19      H        0.25550    0.93470    0.22180    1.000
    H20      H        0.44500    0.15020    0.26730    1.000
    H21      H        0.28420    0.18900    0.23450    1.000
    H22      H        0.18520    0.06420    0.35320    1.000
    H23      H        0.48130    0.01830    0.41070    1.000
    H24      H        0.34250    0.97070    0.46200    1.000
    H25      H        0.30170    0.79470    0.36160    1.000
    H26      H        0.55510    0.87850    0.26950    1.000
    H27      H        0.45590    0.75590    0.24280    1.000
    H28      H        0.06530    0.74450    0.27820    1.000
    H29      H        0.84980    0.55500    0.23270    1.000
    H30      H        0.81100    0.71580    0.26550    1.000
    H31      H        0.93580    0.81480    0.14680    1.000
    H32      H        0.98170    0.51870    0.08930    1.000
    H33      H        0.02930    0.65750    0.03800    1.000
    H34      H        0.20530    0.69830    0.13840    1.000
    H35      H        0.12150    0.44490    0.23050    1.000
    H36      H        0.24410    0.54410    0.25720    1.000
    C1       C        0.64460    0.03280    0.77840    1.000
    C2       C        0.65300    0.88400    0.73430    1.000
    C3       C        0.71600    0.90120    0.64420    1.000
    C4       C        0.61570    0.01670    0.59420    1.000
    C5       C        0.60100    0.16660    0.63850    1.000
    C6       C        0.54530    0.14990    0.72980    1.000
    C7       C        0.58840    0.02560    0.86880    1.000
    C8       C        0.72710    0.75910    0.59680    1.000
    C9       C        0.49580    0.27440    0.59040    1.000
    C10      C        0.96720    0.35540    0.72160    1.000
    C11      C        0.11600    0.34700    0.76570    1.000
    C12      C        0.09880    0.28400    0.85580    1.000
    C13      C        0.98330    0.38430    0.90580    1.000
    C14      C        0.83340    0.39900    0.86150    1.000
    C15      C        0.85010    0.45470    0.77020    1.000
    C16      C        0.97440    0.41160    0.63120    1.000
    C17      C        0.24090    0.27290    0.90320    1.000
    C18      C        0.72560    0.50420    0.90960    1.000
    C19      C        0.35540    0.96720    0.22160    1.000
    C20      C        0.34700    0.11600    0.26570    1.000
    C21      C        0.28400    0.09880    0.35580    1.000
    C22      C        0.38430    0.98330    0.40580    1.000
    C23      C        0.39900    0.83340    0.36150    1.000
    C24      C        0.45470    0.85010    0.27020    1.000
    C25      C        0.41160    0.97440    0.13120    1.000
    C26      C        0.27290    0.24090    0.40320    1.000
    C27      C        0.50420    0.72560    0.40960    1.000
    C28      C        0.03280    0.64460    0.27840    1.000
    C29      C        0.88400    0.65300    0.23430    1.000
    C30      C        0.90120    0.71600    0.14420    1.000
    C31      C        0.01670    0.61570    0.09420    1.000
    C32      C        0.16660    0.60100    0.13850    1.000
    C33      C        0.14990    0.54530    0.22980    1.000
    C34      C        0.02560    0.58840    0.36880    1.000
    C35      C        0.75910    0.72710    0.09680    1.000
    C36      C        0.27440    0.49580    0.09040    1.000
    O1       O        0.59260    0.14080    0.91020    1.000
    O2       O        0.53990    0.90950    0.89760    1.000
    O3       O        0.83860    0.72600    0.54920    1.000
    O4       O        0.62300    0.67660    0.60060    1.000
    O5       O        0.54240    0.38260    0.54950    1.000
    O6       O        0.36080    0.25640    0.59030    1.000
    O7       O        0.85920    0.40740    0.58980    1.000
    O8       O        0.09050    0.46010    0.60240    1.000
    O9       O        0.27400    0.16140    0.95080    1.000
    O10      O        0.32340    0.37700    0.89940    1.000
    O11      O        0.61740    0.45760    0.95050    1.000
    O12      O        0.74360    0.63920    0.90970    1.000
    O13      O        0.40740    0.85920    0.08980    1.000
    O14      O        0.46010    0.09050    0.10240    1.000
    O15      O        0.16140    0.27400    0.45080    1.000
    O16      O        0.37700    0.32340    0.39940    1.000
    O17      O        0.45760    0.61740    0.45050    1.000
    O18      O        0.63920    0.74360    0.40970    1.000
    O19      O        0.14080    0.59260    0.41020    1.000
    O20      O        0.90950    0.53990    0.39760    1.000
    O21      O        0.72600    0.83860    0.04920    1.000
    O22      O        0.67660    0.62300    0.10060    1.000
    O23      O        0.38260    0.54240    0.04950    1.000
    O24      O        0.25640    0.36080    0.09030    1.000
