# CIF file generated by openbabel 3.1.0, see https://openbabel.org
data_I
_chemical_name_common 'image0'
_cell_length_a 75.033
_cell_length_b 29.38
_cell_length_c 29.569
_cell_angle_alpha 90
_cell_angle_beta 90
_cell_angle_gamma 90
_space_group_name_H-M_alt 'P 1'
_space_group_name_Hall 'P 1'
loop_
    _symmetry_equiv_pos_as_xyz
    x,y,z
loop_
    _atom_site_label
    _atom_site_type_symbol
    _atom_site_fract_x
    _atom_site_fract_y
    _atom_site_fract_z
    _atom_site_occupancy
    C1       C        0.92972    0.12710    0.12830    1.000
    H1       H        0.93310    0.12030    0.09800    1.000
    C2       C        0.86523    0.40760    0.23590    1.000
    H2       H        0.85720    0.39520    0.25750    1.000
    C3       C        0.93940    0.15800    0.15300    1.000
    H3       H        0.94880    0.17410    0.13860    1.000
    C4       C        0.91992    0.20600    0.02970    1.000
    H4       H        0.92960    0.19300    0.04610    1.000
    C5       C        0.87164    0.09170    0.93140    1.000
    H5       H        0.87000    0.06050    0.93890    1.000
    C6       C        0.86600    0.15430    0.88450    1.000
    H6       H        0.85980    0.16700    0.85940    1.000
    C7       C        0.91699    0.31010    0.08930    1.000
    C8       C        0.85578    0.48340    0.26500    1.000
    C9       C        0.87956    0.46670    0.20840    1.000
    H7       H        0.88240    0.49830    0.20950    1.000
    C10      C        0.91636    0.24880    0.03520    1.000
    C11      C        0.94574    0.27700    0.06180    1.000
    C12      C        0.85537    0.07850    0.86250    1.000
    C13      C        0.92234    0.34970    0.10190    1.000
    H8       H        0.93330    0.36010    0.08990    1.000
    C14      C        0.05049    0.21410    0.18620    1.000
    H9       H        0.05910    0.19480    0.17260    1.000
    C15      C        0.08670    0.95140    0.81100    1.000
    C16      C        0.03793    0.25010    0.06380    1.000
    C17      C        0.03016    0.27510    0.09820    1.000
    H10      H        0.03700    0.28690    0.12250    1.000
    C18      C        0.88717    0.34110    0.39580    1.000
    H11      H        0.88360    0.33410    0.42580    1.000
    C19      C        0.90105    0.29430    0.11020    1.000
    H12      H        0.89690    0.26430    0.10420    1.000
    C20      C        0.87436    0.37690    0.20790    1.000
    H13      H        0.87190    0.34520    0.20870    1.000
    C21      C        0.88897    0.44170    0.17980    1.000
    H14      H        0.89710    0.45580    0.15960    1.000
    C22      C        0.02015    0.23420    0.20890    1.000
    C23      C        0.87596    0.18230    0.91270    1.000
    H15      H        0.87720    0.21370    0.90560    1.000
    C24      C        0.86695    0.45290    0.23490    1.000
    C25      C        0.89471    0.19320    0.97990    1.000
    C26      C        0.89811    0.31170    0.36970    1.000
    H16      H        0.90170    0.28310    0.38160    1.000
    C27      C        0.90338    0.32440    0.32760    1.000
    C28      C        0.02866    0.23360    0.02900    1.000
    H17      H        0.03440    0.21690    0.00560    1.000
    C29      C        0.03147    0.20220    0.18600    1.000
    H18      H        0.02700    0.17550    0.17180    1.000
    C30      C        0.91468    0.29030    0.29950    1.000
    C31      C        0.93599    0.16670    0.19810    1.000
    C32      C        0.89832    0.36180    0.30910    1.000
    H19      H        0.90150    0.36900    0.27880    1.000
    C33      C        0.07161    0.14990    0.95260    1.000
    H20      H        0.06520    0.17780    0.95130    1.000
    C34      C        0.91357    0.37800    0.13090    1.000
    H21      H        0.91880    0.40660    0.13790    1.000
    C35      C        0.07987    0.99060    0.83620    1.000
    C36      C        0.07546    0.26870    0.20300    1.000
    C37      C        0.00138    0.26490    0.06030    1.000
    C38      C        0.09133    0.10260    0.98900    1.000
    H22      H        0.09930    0.09720    0.01340    1.000
    C39      C        0.88025    0.02260    0.06900    1.000
    C40      C        0.04455    0.27880    0.23210    1.000
    H23      H        0.04900    0.30260    0.25060    1.000
    C41      C        0.05818    0.23990    0.06390    1.000
    C42      C        0.90338    0.07570    0.11800    1.000
    C43      C        0.86503    0.10660    0.89300    1.000
    C44      C        0.93504    0.23000    0.24900    1.000
    C45      C        0.91176    0.28190    0.25490    1.000
    H24      H        0.90220    0.29740    0.24070    1.000
    C46      C        0.07912    0.07670    0.91990    1.000
    C47      C        0.00002    0.22210    0.21180    1.000
    C48      C        0.08962    0.07170    0.95770    1.000
    H25      H        0.09600    0.04400    0.96120    1.000
    C49      C        0.88407    0.16480    0.95110    1.000
    C50      C        0.96371    0.20610    0.21810    1.000
    C51      C        0.06986    0.11640    0.91750    1.000
    H26      H        0.06220    0.12210    0.89260    1.000
    C52      C        0.89218    0.32080    0.13760    1.000
    H27      H        0.88140    0.30930    0.15020    1.000
    C53      C        0.07766    0.04820    0.88290    1.000
    C54      C        0.91566    0.10670    0.14660    1.000
    C55      C        0.93805    0.23690    0.29080    1.000
    H28      H        0.94790    0.22110    0.30340    1.000
    C56      C        0.92094    0.25500    0.23100    1.000
    H29      H        0.91810    0.25170    0.19990    1.000
    C57      C        0.97339    0.27200    0.10080    1.000
    H30      H        0.97970    0.27300    0.12860    1.000
    C58      C        0.91009    0.17790    0.00030    1.000
    H31      H        0.91410    0.14790    0.99440    1.000
    C59      C        0.02619    0.26890    0.23090    1.000
    H32      H        0.01810    0.28820    0.24650    1.000
    C60      C        0.90065    0.26930    0.01030    1.000
    H33      H        0.89800    0.30090    0.01180    1.000
    C61      C        0.89103    0.24080    0.98680    1.000
    H34      H        0.88060    0.25270    0.97280    1.000
    C62      C        0.10470    0.94440    0.80350    1.000
    H35      H        0.11380    0.96350    0.81580    1.000
    C63      C        0.97237    0.27130    0.02190    1.000
    H36      H        0.97850    0.27170    0.99370    1.000
    C64      C        0.88797    0.39140    0.33480    1.000
    H37      H        0.88500    0.42050    0.32300    1.000
    C65      C        0.92887    0.26400    0.31910    1.000
    H38      H        0.93160    0.26560    0.35040    1.000
    C66      C        0.89762    0.36700    0.15040    1.000
    C67      C        0.98221    0.26800    0.06380    1.000
    C68      C        0.98850    0.25780    0.21940    1.000
    H39      H        0.99300    0.28780    0.22250    1.000
    C69      C        0.07560    0.91690    0.79600    1.000
    H40      H        0.06320    0.92330    0.79920    1.000
    C70      C        0.88506    0.07140    0.13050    1.000
    H41      H        0.88030    0.08710    0.15590    1.000
    C71      C        0.87100    0.41330    0.40160    1.000
    C72      C        0.92198    0.14260    0.21790    1.000
    H42      H        0.91940    0.14700    0.24910    1.000
    C73      C        0.10860    0.90470    0.77480    1.000
    H43      H        0.11950    0.90530    0.75830    1.000
    C74      C        0.88223    0.37980    0.37490    1.000
    C75      C        0.07920    0.87400    0.77710    1.000
    H44      H        0.07040    0.85210    0.77000    1.000
    C76      C        0.88689    0.39440    0.17950    1.000
    C77      C        0.99397    0.17940    0.20410    1.000
    H45      H        0.00200    0.15530    0.19750    1.000
    C78      C        0.89854    0.02860    0.05650    1.000
    H46      H        0.90320    0.01330    0.03080    1.000
    C79      C        0.00958    0.24210    0.02790    1.000
    H47      H        0.00280    0.23090    0.00320    1.000
    C80      C        0.05539    0.25400    0.20680    1.000
    C81      C        0.95421    0.27520    0.10140    1.000
    H48      H        0.94780    0.27590    0.12920    1.000
    C82      C        0.91199    0.11350    0.19380    1.000
    H49      H        0.90250    0.09740    0.20790    1.000
    C83      C        0.95412    0.27390    0.02340    1.000
    H50      H        0.94750    0.27340    0.99600    1.000
    C84      C        0.87037    0.99260    0.04080    1.000
    C85      C        0.97440    0.17160    0.20630    1.000
    H51      H        0.96960    0.14250    0.19950    1.000
    C86      C        0.88079    0.11870    0.96110    1.000
    H52      H        0.88500    0.10620    0.98870    1.000
    C87      C        0.90945    0.05680    0.08210    1.000
    H53      H        0.92140    0.06220    0.07290    1.000
    C88      C        0.87471    0.04420    0.10460    1.000
    H54      H        0.86260    0.04070    0.11300    1.000
    C89      C        0.97028    0.25000    0.22260    1.000
    H55      H        0.96240    0.27470    0.22780    1.000
    C90      C        0.01215    0.28210    0.09580    1.000
    H56      H        0.00660    0.29930    0.11910    1.000
    N1       N        0.08708    0.00770    0.87540    1.000
    N2       N        0.08256    0.14050    0.98770    1.000
    N3       N        0.06694    0.05230    0.84750    1.000
    N4       N        0.09993    0.98940    0.90240    1.000
    H57      H        0.10470    0.96300    0.89540    1.000
    H58      H        0.10340    0.00400    0.92680    1.000
    N5       N        0.09820    0.86730    0.76960    1.000
    N6       N        0.06802    0.01870    0.81840    1.000
    N7       N        0.92593    0.28310    0.06020    1.000
    N8       N        0.94519    0.19930    0.22290    1.000
    O1       O        0.87425    0.97320    0.00710    1.000
    O2       O        0.85494    0.52370    0.25500    1.000
    O3       O        0.84815    0.46300    0.29780    1.000
    O4       O        0.08519    0.24540    0.17700    1.000
    O5       O        0.85787    0.03670    0.86330    1.000
    O6       O        0.07962    0.29850    0.22980    1.000
    O7       O        0.84471    0.09770    0.83350    1.000
    O8       O        0.86728    0.45140    0.38650    1.000
    O9       O        0.86600    0.40070    0.44080    1.000
    O10      O        0.06620    0.25440    0.09690    1.000
    O11      O        0.85255    0.98460    0.05710    1.000
    O12      O        0.06371    0.21720    0.03440    1.000
    Cu1      Cu       0.08695    0.19067    0.03400    1.000
    Cu2      Cu       0.10446    0.31361    0.23610    1.000
    Cu3      Cu       0.09300    0.27168    0.11606    1.000
    C91      C        0.92972    0.62710    0.62830    1.000
    H59      H        0.93310    0.62030    0.59800    1.000
    C92      C        0.86523    0.90760    0.73590    1.000
    H60      H        0.85720    0.89520    0.75750    1.000
    C93      C        0.93940    0.65800    0.65300    1.000
    H61      H        0.94880    0.67410    0.63860    1.000
    C94      C        0.91992    0.70600    0.52970    1.000
    H62      H        0.92960    0.69300    0.54610    1.000
    C95      C        0.87164    0.59170    0.43140    1.000
    H63      H        0.87000    0.56050    0.43890    1.000
    C96      C        0.86600    0.65430    0.38450    1.000
    H64      H        0.85980    0.66700    0.35940    1.000
    C97      C        0.91699    0.81010    0.58930    1.000
    C98      C        0.85578    0.98340    0.76500    1.000
    C99      C        0.87956    0.96670    0.70840    1.000
    H65      H        0.88240    0.99830    0.70950    1.000
    C100     C        0.91636    0.74880    0.53520    1.000
    C101     C        0.94574    0.77700    0.56180    1.000
    C102     C        0.85537    0.57850    0.36250    1.000
    C103     C        0.92234    0.84970    0.60190    1.000
    H66      H        0.93330    0.86010    0.58990    1.000
    C104     C        0.05049    0.71410    0.68620    1.000
    H67      H        0.05910    0.69480    0.67260    1.000
    C105     C        0.08670    0.45140    0.31100    1.000
    C106     C        0.03793    0.75010    0.56380    1.000
    C107     C        0.03016    0.77510    0.59820    1.000
    H68      H        0.03700    0.78690    0.62250    1.000
    C108     C        0.88717    0.84110    0.89580    1.000
    H69      H        0.88360    0.83410    0.92580    1.000
    C109     C        0.90105    0.79430    0.61020    1.000
    H70      H        0.89690    0.76430    0.60420    1.000
    C110     C        0.87436    0.87690    0.70790    1.000
    H71      H        0.87190    0.84520    0.70870    1.000
    C111     C        0.88897    0.94170    0.67980    1.000
    H72      H        0.89710    0.95580    0.65960    1.000
    C112     C        0.02015    0.73420    0.70890    1.000
    C113     C        0.87596    0.68230    0.41270    1.000
    H73      H        0.87720    0.71370    0.40560    1.000
    C114     C        0.86695    0.95290    0.73490    1.000
    C115     C        0.89471    0.69320    0.47990    1.000
    C116     C        0.89811    0.81170    0.86970    1.000
    H74      H        0.90170    0.78310    0.88160    1.000
    C117     C        0.90338    0.82440    0.82760    1.000
    C118     C        0.02866    0.73360    0.52900    1.000
    H75      H        0.03440    0.71690    0.50560    1.000
    C119     C        0.03147    0.70220    0.68600    1.000
    H76      H        0.02700    0.67550    0.67180    1.000
    C120     C        0.91468    0.79030    0.79950    1.000
    C121     C        0.93599    0.66670    0.69810    1.000
    C122     C        0.89832    0.86180    0.80910    1.000
    H77      H        0.90150    0.86900    0.77880    1.000
    C123     C        0.07161    0.64990    0.45260    1.000
    H78      H        0.06520    0.67780    0.45130    1.000
    C124     C        0.91357    0.87800    0.63090    1.000
    H79      H        0.91880    0.90660    0.63790    1.000
    C125     C        0.07987    0.49060    0.33620    1.000
    C126     C        0.07546    0.76870    0.70300    1.000
    C127     C        0.00138    0.76490    0.56030    1.000
    C128     C        0.09133    0.60260    0.48900    1.000
    H80      H        0.09930    0.59720    0.51340    1.000
    C129     C        0.88025    0.52260    0.56900    1.000
    C130     C        0.04455    0.77880    0.73210    1.000
    H81      H        0.04900    0.80260    0.75060    1.000
    C131     C        0.05818    0.73990    0.56390    1.000
    C132     C        0.90338    0.57570    0.61800    1.000
    C133     C        0.86503    0.60660    0.39300    1.000
    C134     C        0.93504    0.73000    0.74900    1.000
    C135     C        0.91176    0.78190    0.75490    1.000
    H82      H        0.90220    0.79740    0.74070    1.000
    C136     C        0.07912    0.57670    0.41990    1.000
    C137     C        0.00002    0.72210    0.71180    1.000
    C138     C        0.08962    0.57170    0.45770    1.000
    H83      H        0.09600    0.54400    0.46120    1.000
    C139     C        0.88407    0.66480    0.45110    1.000
    C140     C        0.96371    0.70610    0.71810    1.000
    C141     C        0.06986    0.61640    0.41750    1.000
    H84      H        0.06220    0.62210    0.39260    1.000
    C142     C        0.89218    0.82080    0.63760    1.000
    H85      H        0.88140    0.80930    0.65020    1.000
    C143     C        0.07766    0.54820    0.38290    1.000
    C144     C        0.91566    0.60670    0.64660    1.000
    C145     C        0.93805    0.73690    0.79080    1.000
    H86      H        0.94790    0.72110    0.80340    1.000
    C146     C        0.92094    0.75500    0.73100    1.000
    H87      H        0.91810    0.75170    0.69990    1.000
    C147     C        0.97339    0.77200    0.60080    1.000
    H88      H        0.97970    0.77300    0.62860    1.000
    C148     C        0.91009    0.67790    0.50030    1.000
    H89      H        0.91410    0.64790    0.49440    1.000
    C149     C        0.02619    0.76890    0.73090    1.000
    H90      H        0.01810    0.78820    0.74650    1.000
    C150     C        0.90065    0.76930    0.51030    1.000
    H91      H        0.89800    0.80090    0.51180    1.000
    C151     C        0.89103    0.74080    0.48680    1.000
    H92      H        0.88060    0.75270    0.47280    1.000
    C152     C        0.10470    0.44440    0.30350    1.000
    H93      H        0.11380    0.46350    0.31580    1.000
    C153     C        0.97237    0.77130    0.52190    1.000
    H94      H        0.97850    0.77170    0.49370    1.000
    C154     C        0.88797    0.89140    0.83480    1.000
    H95      H        0.88500    0.92050    0.82300    1.000
    C155     C        0.92887    0.76400    0.81910    1.000
    H96      H        0.93160    0.76560    0.85040    1.000
    C156     C        0.89762    0.86700    0.65040    1.000
    C157     C        0.98221    0.76800    0.56380    1.000
    C158     C        0.98850    0.75780    0.71940    1.000
    H97      H        0.99300    0.78780    0.72250    1.000
    C159     C        0.07560    0.41690    0.29600    1.000
    H98      H        0.06320    0.42330    0.29920    1.000
    C160     C        0.88506    0.57140    0.63050    1.000
    H99      H        0.88030    0.58710    0.65590    1.000
    C161     C        0.87100    0.91330    0.90160    1.000
    C162     C        0.92198    0.64260    0.71790    1.000
    H100     H        0.91940    0.64700    0.74910    1.000
    C163     C        0.10860    0.40470    0.27480    1.000
    H101     H        0.11950    0.40530    0.25830    1.000
    C164     C        0.88223    0.87980    0.87490    1.000
    C165     C        0.07920    0.37400    0.27710    1.000
    H102     H        0.07040    0.35210    0.27000    1.000
    C166     C        0.88689    0.89440    0.67950    1.000
    C167     C        0.99397    0.67940    0.70410    1.000
    H103     H        0.00200    0.65530    0.69750    1.000
    C168     C        0.89854    0.52860    0.55650    1.000
    H104     H        0.90320    0.51330    0.53080    1.000
    C169     C        0.00958    0.74210    0.52790    1.000
    H105     H        0.00280    0.73090    0.50320    1.000
    C170     C        0.05539    0.75400    0.70680    1.000
    C171     C        0.95421    0.77520    0.60140    1.000
    H106     H        0.94780    0.77590    0.62920    1.000
    C172     C        0.91199    0.61350    0.69380    1.000
    H107     H        0.90250    0.59740    0.70790    1.000
    C173     C        0.95412    0.77390    0.52340    1.000
    H108     H        0.94750    0.77340    0.49600    1.000
    C174     C        0.87037    0.49260    0.54080    1.000
    C175     C        0.97440    0.67160    0.70630    1.000
    H109     H        0.96960    0.64250    0.69950    1.000
    C176     C        0.88079    0.61870    0.46110    1.000
    H110     H        0.88500    0.60620    0.48870    1.000
    C177     C        0.90945    0.55680    0.58210    1.000
    H111     H        0.92140    0.56220    0.57290    1.000
    C178     C        0.87471    0.54420    0.60460    1.000
    H112     H        0.86260    0.54070    0.61300    1.000
    C179     C        0.97028    0.75000    0.72260    1.000
    H113     H        0.96240    0.77470    0.72780    1.000
    C180     C        0.01215    0.78210    0.59580    1.000
    H114     H        0.00660    0.79930    0.61910    1.000
    N9       N        0.08708    0.50770    0.37540    1.000
    N10      N        0.08256    0.64050    0.48770    1.000
    N11      N        0.06694    0.55230    0.34750    1.000
    N12      N        0.09993    0.48940    0.40240    1.000
    H115     H        0.10470    0.46300    0.39540    1.000
    H116     H        0.10340    0.50400    0.42680    1.000
    N13      N        0.09820    0.36730    0.26960    1.000
    N14      N        0.06802    0.51870    0.31840    1.000
    N15      N        0.92593    0.78310    0.56020    1.000
    N16      N        0.94519    0.69930    0.72290    1.000
    O13      O        0.87425    0.47320    0.50710    1.000
    O14      O        0.85494    0.02370    0.75500    1.000
    O15      O        0.84815    0.96300    0.79780    1.000
    O16      O        0.08519    0.74540    0.67700    1.000
    O17      O        0.85787    0.53670    0.36330    1.000
    O18      O        0.07962    0.79850    0.72980    1.000
    O19      O        0.84471    0.59770    0.33350    1.000
    O20      O        0.86728    0.95140    0.88650    1.000
    O21      O        0.86600    0.90070    0.94080    1.000
    O22      O        0.06620    0.75440    0.59690    1.000
    O23      O        0.85255    0.48460    0.55710    1.000
    O24      O        0.06371    0.71720    0.53440    1.000
    Cu4      Cu       0.08695    0.69067    0.53400    1.000
    Cu5      Cu       0.10446    0.81361    0.73610    1.000
    Cu6      Cu       0.09300    0.77168    0.61606    1.000
    C181     C        0.42972    0.12710    0.62830    1.000
    H117     H        0.43310    0.12030    0.59800    1.000
    C182     C        0.36523    0.40760    0.73590    1.000
    H118     H        0.35720    0.39520    0.75750    1.000
    C183     C        0.43940    0.15800    0.65300    1.000
    H119     H        0.44880    0.17410    0.63860    1.000
    C184     C        0.41992    0.20600    0.52970    1.000
    H120     H        0.42960    0.19300    0.54610    1.000
    C185     C        0.37164    0.09170    0.43140    1.000
    H121     H        0.37000    0.06050    0.43890    1.000
    C186     C        0.36600    0.15430    0.38450    1.000
    H122     H        0.35980    0.16700    0.35940    1.000
    C187     C        0.41699    0.31010    0.58930    1.000
    C188     C        0.35578    0.48340    0.76500    1.000
    C189     C        0.37956    0.46670    0.70840    1.000
    H123     H        0.38240    0.49830    0.70950    1.000
    C190     C        0.41636    0.24880    0.53520    1.000
    C191     C        0.44574    0.27700    0.56180    1.000
    C192     C        0.35537    0.07850    0.36250    1.000
    C193     C        0.42234    0.34970    0.60190    1.000
    H124     H        0.43330    0.36010    0.58990    1.000
    C194     C        0.55049    0.21410    0.68620    1.000
    H125     H        0.55910    0.19480    0.67260    1.000
    C195     C        0.58670    0.95140    0.31100    1.000
    C196     C        0.53793    0.25010    0.56380    1.000
    C197     C        0.53016    0.27510    0.59820    1.000
    H126     H        0.53700    0.28690    0.62250    1.000
    C198     C        0.38717    0.34110    0.89580    1.000
    H127     H        0.38360    0.33410    0.92580    1.000
    C199     C        0.40105    0.29430    0.61020    1.000
    H128     H        0.39690    0.26430    0.60420    1.000
    C200     C        0.37436    0.37690    0.70790    1.000
    H129     H        0.37190    0.34520    0.70870    1.000
    C201     C        0.38897    0.44170    0.67980    1.000
    H130     H        0.39710    0.45580    0.65960    1.000
    C202     C        0.52015    0.23420    0.70890    1.000
    C203     C        0.37596    0.18230    0.41270    1.000
    H131     H        0.37720    0.21370    0.40560    1.000
    C204     C        0.36695    0.45290    0.73490    1.000
    C205     C        0.39471    0.19320    0.47990    1.000
    C206     C        0.39811    0.31170    0.86970    1.000
    H132     H        0.40170    0.28310    0.88160    1.000
    C207     C        0.40338    0.32440    0.82760    1.000
    C208     C        0.52866    0.23360    0.52900    1.000
    H133     H        0.53440    0.21690    0.50560    1.000
    C209     C        0.53147    0.20220    0.68600    1.000
    H134     H        0.52700    0.17550    0.67180    1.000
    C210     C        0.41468    0.29030    0.79950    1.000
    C211     C        0.43599    0.16670    0.69810    1.000
    C212     C        0.39832    0.36180    0.80910    1.000
    H135     H        0.40150    0.36900    0.77880    1.000
    C213     C        0.57161    0.14990    0.45260    1.000
    H136     H        0.56520    0.17780    0.45130    1.000
    C214     C        0.41357    0.37800    0.63090    1.000
    H137     H        0.41880    0.40660    0.63790    1.000
    C215     C        0.57987    0.99060    0.33620    1.000
    C216     C        0.57546    0.26870    0.70300    1.000
    C217     C        0.50138    0.26490    0.56030    1.000
    C218     C        0.59133    0.10260    0.48900    1.000
    H138     H        0.59930    0.09720    0.51340    1.000
    C219     C        0.38025    0.02260    0.56900    1.000
    C220     C        0.54455    0.27880    0.73210    1.000
    H139     H        0.54900    0.30260    0.75060    1.000
    C221     C        0.55818    0.23990    0.56390    1.000
    C222     C        0.40338    0.07570    0.61800    1.000
    C223     C        0.36503    0.10660    0.39300    1.000
    C224     C        0.43504    0.23000    0.74900    1.000
    C225     C        0.41176    0.28190    0.75490    1.000
    H140     H        0.40220    0.29740    0.74070    1.000
    C226     C        0.57912    0.07670    0.41990    1.000
    C227     C        0.50002    0.22210    0.71180    1.000
    C228     C        0.58962    0.07170    0.45770    1.000
    H141     H        0.59600    0.04400    0.46120    1.000
    C229     C        0.38407    0.16480    0.45110    1.000
    C230     C        0.46371    0.20610    0.71810    1.000
    C231     C        0.56986    0.11640    0.41750    1.000
    H142     H        0.56220    0.12210    0.39260    1.000
    C232     C        0.39218    0.32080    0.63760    1.000
    H143     H        0.38140    0.30930    0.65020    1.000
    C233     C        0.57766    0.04820    0.38290    1.000
    C234     C        0.41566    0.10670    0.64660    1.000
    C235     C        0.43805    0.23690    0.79080    1.000
    H144     H        0.44790    0.22110    0.80340    1.000
    C236     C        0.42094    0.25500    0.73100    1.000
    H145     H        0.41810    0.25170    0.69990    1.000
    C237     C        0.47339    0.27200    0.60080    1.000
    H146     H        0.47970    0.27300    0.62860    1.000
    C238     C        0.41009    0.17790    0.50030    1.000
    H147     H        0.41410    0.14790    0.49440    1.000
    C239     C        0.52619    0.26890    0.73090    1.000
    H148     H        0.51810    0.28820    0.74650    1.000
    C240     C        0.40065    0.26930    0.51030    1.000
    H149     H        0.39800    0.30090    0.51180    1.000
    C241     C        0.39103    0.24080    0.48680    1.000
    H150     H        0.38060    0.25270    0.47280    1.000
    C242     C        0.60470    0.94440    0.30350    1.000
    H151     H        0.61380    0.96350    0.31580    1.000
    C243     C        0.47237    0.27130    0.52190    1.000
    H152     H        0.47850    0.27170    0.49370    1.000
    C244     C        0.38797    0.39140    0.83480    1.000
    H153     H        0.38500    0.42050    0.82300    1.000
    C245     C        0.42887    0.26400    0.81910    1.000
    H154     H        0.43160    0.26560    0.85040    1.000
    C246     C        0.39762    0.36700    0.65040    1.000
    C247     C        0.48221    0.26800    0.56380    1.000
    C248     C        0.48850    0.25780    0.71940    1.000
    H155     H        0.49300    0.28780    0.72250    1.000
    C249     C        0.57560    0.91690    0.29600    1.000
    H156     H        0.56320    0.92330    0.29920    1.000
    C250     C        0.38506    0.07140    0.63050    1.000
    H157     H        0.38030    0.08710    0.65590    1.000
    C251     C        0.37100    0.41330    0.90160    1.000
    C252     C        0.42198    0.14260    0.71790    1.000
    H158     H        0.41940    0.14700    0.74910    1.000
    C253     C        0.60860    0.90470    0.27480    1.000
    H159     H        0.61950    0.90530    0.25830    1.000
    C254     C        0.38223    0.37980    0.87490    1.000
    C255     C        0.57920    0.87400    0.27710    1.000
    H160     H        0.57040    0.85210    0.27000    1.000
    C256     C        0.38689    0.39440    0.67950    1.000
    C257     C        0.49397    0.17940    0.70410    1.000
    H161     H        0.50200    0.15530    0.69750    1.000
    C258     C        0.39854    0.02860    0.55650    1.000
    H162     H        0.40320    0.01330    0.53080    1.000
    C259     C        0.50958    0.24210    0.52790    1.000
    H163     H        0.50280    0.23090    0.50320    1.000
    C260     C        0.55539    0.25400    0.70680    1.000
    C261     C        0.45421    0.27520    0.60140    1.000
    H164     H        0.44780    0.27590    0.62920    1.000
    C262     C        0.41199    0.11350    0.69380    1.000
    H165     H        0.40250    0.09740    0.70790    1.000
    C263     C        0.45412    0.27390    0.52340    1.000
    H166     H        0.44750    0.27340    0.49600    1.000
    C264     C        0.37037    0.99260    0.54080    1.000
    C265     C        0.47440    0.17160    0.70630    1.000
    H167     H        0.46960    0.14250    0.69950    1.000
    C266     C        0.38079    0.11870    0.46110    1.000
    H168     H        0.38500    0.10620    0.48870    1.000
    C267     C        0.40945    0.05680    0.58210    1.000
    H169     H        0.42140    0.06220    0.57290    1.000
    C268     C        0.37471    0.04420    0.60460    1.000
    H170     H        0.36260    0.04070    0.61300    1.000
    C269     C        0.47028    0.25000    0.72260    1.000
    H171     H        0.46240    0.27470    0.72780    1.000
    C270     C        0.51215    0.28210    0.59580    1.000
    H172     H        0.50660    0.29930    0.61910    1.000
    N17      N        0.58708    0.00770    0.37540    1.000
    N18      N        0.58256    0.14050    0.48770    1.000
    N19      N        0.56694    0.05230    0.34750    1.000
    N20      N        0.59993    0.98940    0.40240    1.000
    H173     H        0.60470    0.96300    0.39540    1.000
    H174     H        0.60340    0.00400    0.42680    1.000
    N21      N        0.59820    0.86730    0.26960    1.000
    N22      N        0.56802    0.01870    0.31840    1.000
    N23      N        0.42593    0.28310    0.56020    1.000
    N24      N        0.44519    0.19930    0.72290    1.000
    O25      O        0.37425    0.97320    0.50710    1.000
    O26      O        0.35494    0.52370    0.75500    1.000
    O27      O        0.34815    0.46300    0.79780    1.000
    O28      O        0.58519    0.24540    0.67700    1.000
    O29      O        0.35787    0.03670    0.36330    1.000
    O30      O        0.57962    0.29850    0.72980    1.000
    O31      O        0.34471    0.09770    0.33350    1.000
    O32      O        0.36728    0.45140    0.88650    1.000
    O33      O        0.36600    0.40070    0.94080    1.000
    O34      O        0.56620    0.25440    0.59690    1.000
    O35      O        0.35255    0.98460    0.55710    1.000
    O36      O        0.56371    0.21720    0.53440    1.000
    Cu7      Cu       0.58695    0.19067    0.53400    1.000
    Cu8      Cu       0.60446    0.31361    0.73610    1.000
    Cu9      Cu       0.59300    0.27168    0.61606    1.000
    C271     C        0.42972    0.62710    0.12830    1.000
    H175     H        0.43310    0.62030    0.09800    1.000
    C272     C        0.36523    0.90760    0.23590    1.000
    H176     H        0.35720    0.89520    0.25750    1.000
    C273     C        0.43940    0.65800    0.15300    1.000
    H177     H        0.44880    0.67410    0.13860    1.000
    C274     C        0.41992    0.70600    0.02970    1.000
    H178     H        0.42960    0.69300    0.04610    1.000
    C275     C        0.37164    0.59170    0.93140    1.000
    H179     H        0.37000    0.56050    0.93890    1.000
    C276     C        0.36600    0.65430    0.88450    1.000
    H180     H        0.35980    0.66700    0.85940    1.000
    C277     C        0.41699    0.81010    0.08930    1.000
    C278     C        0.35578    0.98340    0.26500    1.000
    C279     C        0.37956    0.96670    0.20840    1.000
    H181     H        0.38240    0.99830    0.20950    1.000
    C280     C        0.41636    0.74880    0.03520    1.000
    C281     C        0.44574    0.77700    0.06180    1.000
    C282     C        0.35537    0.57850    0.86250    1.000
    C283     C        0.42234    0.84970    0.10190    1.000
    H182     H        0.43330    0.86010    0.08990    1.000
    C284     C        0.55049    0.71410    0.18620    1.000
    H183     H        0.55910    0.69480    0.17260    1.000
    C285     C        0.58670    0.45140    0.81100    1.000
    C286     C        0.53793    0.75010    0.06380    1.000
    C287     C        0.53016    0.77510    0.09820    1.000
    H184     H        0.53700    0.78690    0.12250    1.000
    C288     C        0.38717    0.84110    0.39580    1.000
    H185     H        0.38360    0.83410    0.42580    1.000
    C289     C        0.40105    0.79430    0.11020    1.000
    H186     H        0.39690    0.76430    0.10420    1.000
    C290     C        0.37436    0.87690    0.20790    1.000
    H187     H        0.37190    0.84520    0.20870    1.000
    C291     C        0.38897    0.94170    0.17980    1.000
    H188     H        0.39710    0.95580    0.15960    1.000
    C292     C        0.52015    0.73420    0.20890    1.000
    C293     C        0.37596    0.68230    0.91270    1.000
    H189     H        0.37720    0.71370    0.90560    1.000
    C294     C        0.36695    0.95290    0.23490    1.000
    C295     C        0.39471    0.69320    0.97990    1.000
    C296     C        0.39811    0.81170    0.36970    1.000
    H190     H        0.40170    0.78310    0.38160    1.000
    C297     C        0.40338    0.82440    0.32760    1.000
    C298     C        0.52866    0.73360    0.02900    1.000
    H191     H        0.53440    0.71690    0.00560    1.000
    C299     C        0.53147    0.70220    0.18600    1.000
    H192     H        0.52700    0.67550    0.17180    1.000
    C300     C        0.41468    0.79030    0.29950    1.000
    C301     C        0.43599    0.66670    0.19810    1.000
    C302     C        0.39832    0.86180    0.30910    1.000
    H193     H        0.40150    0.86900    0.27880    1.000
    C303     C        0.57161    0.64990    0.95260    1.000
    H194     H        0.56520    0.67780    0.95130    1.000
    C304     C        0.41357    0.87800    0.13090    1.000
    H195     H        0.41880    0.90660    0.13790    1.000
    C305     C        0.57987    0.49060    0.83620    1.000
    C306     C        0.57546    0.76870    0.20300    1.000
    C307     C        0.50138    0.76490    0.06030    1.000
    C308     C        0.59133    0.60260    0.98900    1.000
    H196     H        0.59930    0.59720    0.01340    1.000
    C309     C        0.38025    0.52260    0.06900    1.000
    C310     C        0.54455    0.77880    0.23210    1.000
    H197     H        0.54900    0.80260    0.25060    1.000
    C311     C        0.55818    0.73990    0.06390    1.000
    C312     C        0.40338    0.57570    0.11800    1.000
    C313     C        0.36503    0.60660    0.89300    1.000
    C314     C        0.43504    0.73000    0.24900    1.000
    C315     C        0.41176    0.78190    0.25490    1.000
    H198     H        0.40220    0.79740    0.24070    1.000
    C316     C        0.57912    0.57670    0.91990    1.000
    C317     C        0.50002    0.72210    0.21180    1.000
    C318     C        0.58962    0.57170    0.95770    1.000
    H199     H        0.59600    0.54400    0.96120    1.000
    C319     C        0.38407    0.66480    0.95110    1.000
    C320     C        0.46371    0.70610    0.21810    1.000
    C321     C        0.56986    0.61640    0.91750    1.000
    H200     H        0.56220    0.62210    0.89260    1.000
    C322     C        0.39218    0.82080    0.13760    1.000
    H201     H        0.38140    0.80930    0.15020    1.000
    C323     C        0.57766    0.54820    0.88290    1.000
    C324     C        0.41566    0.60670    0.14660    1.000
    C325     C        0.43805    0.73690    0.29080    1.000
    H202     H        0.44790    0.72110    0.30340    1.000
    C326     C        0.42094    0.75500    0.23100    1.000
    H203     H        0.41810    0.75170    0.19990    1.000
    C327     C        0.47339    0.77200    0.10080    1.000
    H204     H        0.47970    0.77300    0.12860    1.000
    C328     C        0.41009    0.67790    0.00030    1.000
    H205     H        0.41410    0.64790    0.99440    1.000
    C329     C        0.52619    0.76890    0.23090    1.000
    H206     H        0.51810    0.78820    0.24650    1.000
    C330     C        0.40065    0.76930    0.01030    1.000
    H207     H        0.39800    0.80090    0.01180    1.000
    C331     C        0.39103    0.74080    0.98680    1.000
    H208     H        0.38060    0.75270    0.97280    1.000
    C332     C        0.60470    0.44440    0.80350    1.000
    H209     H        0.61380    0.46350    0.81580    1.000
    C333     C        0.47237    0.77130    0.02190    1.000
    H210     H        0.47850    0.77170    0.99370    1.000
    C334     C        0.38797    0.89140    0.33480    1.000
    H211     H        0.38500    0.92050    0.32300    1.000
    C335     C        0.42887    0.76400    0.31910    1.000
    H212     H        0.43160    0.76560    0.35040    1.000
    C336     C        0.39762    0.86700    0.15040    1.000
    C337     C        0.48221    0.76800    0.06380    1.000
    C338     C        0.48850    0.75780    0.21940    1.000
    H213     H        0.49300    0.78780    0.22250    1.000
    C339     C        0.57560    0.41690    0.79600    1.000
    H214     H        0.56320    0.42330    0.79920    1.000
    C340     C        0.38506    0.57140    0.13050    1.000
    H215     H        0.38030    0.58710    0.15590    1.000
    C341     C        0.37100    0.91330    0.40160    1.000
    C342     C        0.42198    0.64260    0.21790    1.000
    H216     H        0.41940    0.64700    0.24910    1.000
    C343     C        0.60860    0.40470    0.77480    1.000
    H217     H        0.61950    0.40530    0.75830    1.000
    C344     C        0.38223    0.87980    0.37490    1.000
    C345     C        0.57920    0.37400    0.77710    1.000
    H218     H        0.57040    0.35210    0.77000    1.000
    C346     C        0.38689    0.89440    0.17950    1.000
    C347     C        0.49397    0.67940    0.20410    1.000
    H219     H        0.50200    0.65530    0.19750    1.000
    C348     C        0.39854    0.52860    0.05650    1.000
    H220     H        0.40320    0.51330    0.03080    1.000
    C349     C        0.50958    0.74210    0.02790    1.000
    H221     H        0.50280    0.73090    0.00320    1.000
    C350     C        0.55539    0.75400    0.20680    1.000
    C351     C        0.45421    0.77520    0.10140    1.000
    H222     H        0.44780    0.77590    0.12920    1.000
    C352     C        0.41199    0.61350    0.19380    1.000
    H223     H        0.40250    0.59740    0.20790    1.000
    C353     C        0.45412    0.77390    0.02340    1.000
    H224     H        0.44750    0.77340    0.99600    1.000
    C354     C        0.37037    0.49260    0.04080    1.000
    C355     C        0.47440    0.67160    0.20630    1.000
    H225     H        0.46960    0.64250    0.19950    1.000
    C356     C        0.38079    0.61870    0.96110    1.000
    H226     H        0.38500    0.60620    0.98870    1.000
    C357     C        0.40945    0.55680    0.08210    1.000
    H227     H        0.42140    0.56220    0.07290    1.000
    C358     C        0.37471    0.54420    0.10460    1.000
    H228     H        0.36260    0.54070    0.11300    1.000
    C359     C        0.47028    0.75000    0.22260    1.000
    H229     H        0.46240    0.77470    0.22780    1.000
    C360     C        0.51215    0.78210    0.09580    1.000
    H230     H        0.50660    0.79930    0.11910    1.000
    N25      N        0.58708    0.50770    0.87540    1.000
    N26      N        0.58256    0.64050    0.98770    1.000
    N27      N        0.56694    0.55230    0.84750    1.000
    N28      N        0.59993    0.48940    0.90240    1.000
    H231     H        0.60470    0.46300    0.89540    1.000
    H232     H        0.60340    0.50400    0.92680    1.000
    N29      N        0.59820    0.36730    0.76960    1.000
    N30      N        0.56802    0.51870    0.81840    1.000
    N31      N        0.42593    0.78310    0.06020    1.000
    N32      N        0.44519    0.69930    0.22290    1.000
    O37      O        0.37425    0.47320    0.00710    1.000
    O38      O        0.35494    0.02370    0.25500    1.000
    O39      O        0.34815    0.96300    0.29780    1.000
    O40      O        0.58519    0.74540    0.17700    1.000
    O41      O        0.35787    0.53670    0.86330    1.000
    O42      O        0.57962    0.79850    0.22980    1.000
    O43      O        0.34471    0.59770    0.83350    1.000
    O44      O        0.36728    0.95140    0.38650    1.000
    O45      O        0.36600    0.90070    0.44080    1.000
    O46      O        0.56620    0.75440    0.09690    1.000
    O47      O        0.35255    0.48460    0.05710    1.000
    O48      O        0.56371    0.71720    0.03440    1.000
    Cu10     Cu       0.58695    0.69067    0.03400    1.000
    Cu11     Cu       0.60446    0.81361    0.23610    1.000
    Cu12     Cu       0.59300    0.77168    0.11606    1.000
    C361     C        0.17972    0.12290    0.37830    1.000
    H233     H        0.18310    0.12970    0.34800    1.000
    C362     C        0.11523    0.84240    0.48590    1.000
    H234     H        0.10720    0.85480    0.50750    1.000
    C363     C        0.18940    0.09200    0.40300    1.000
    H235     H        0.19880    0.07590    0.38860    1.000
    C364     C        0.16992    0.04400    0.27970    1.000
    H236     H        0.17960    0.05700    0.29610    1.000
    C365     C        0.12164    0.15830    0.18140    1.000
    H237     H        0.12000    0.18950    0.18890    1.000
    C366     C        0.11600    0.09570    0.13450    1.000
    H238     H        0.10980    0.08300    0.10940    1.000
    C367     C        0.16699    0.93990    0.33930    1.000
    C368     C        0.10578    0.76660    0.51500    1.000
    C369     C        0.12956    0.78330    0.45840    1.000
    H239     H        0.13240    0.75170    0.45950    1.000
    C370     C        0.16636    0.00120    0.28520    1.000
    C371     C        0.19574    0.97300    0.31180    1.000
    C372     C        0.10537    0.17150    0.11250    1.000
    C373     C        0.17234    0.90030    0.35190    1.000
    H240     H        0.18330    0.88990    0.33990    1.000
    C374     C        0.30049    0.03590    0.43620    1.000
    H241     H        0.30910    0.05520    0.42260    1.000
    C375     C        0.33670    0.29860    0.06100    1.000
    C376     C        0.28793    0.99990    0.31380    1.000
    C377     C        0.28016    0.97490    0.34820    1.000
    H242     H        0.28700    0.96310    0.37250    1.000
    C378     C        0.13717    0.90890    0.64580    1.000
    H243     H        0.13360    0.91590    0.67580    1.000
    C379     C        0.15105    0.95570    0.36020    1.000
    H244     H        0.14690    0.98570    0.35420    1.000
    C380     C        0.12436    0.87310    0.45790    1.000
    H245     H        0.12190    0.90480    0.45870    1.000
    C381     C        0.13897    0.80830    0.42980    1.000
    H246     H        0.14710    0.79420    0.40960    1.000
    C382     C        0.27015    0.01580    0.45890    1.000
    C383     C        0.12596    0.06770    0.16270    1.000
    H247     H        0.12720    0.03630    0.15560    1.000
    C384     C        0.11695    0.79710    0.48490    1.000
    C385     C        0.14471    0.05680    0.22990    1.000
    C386     C        0.14811    0.93830    0.61970    1.000
    H248     H        0.15170    0.96690    0.63160    1.000
    C387     C        0.15338    0.92560    0.57760    1.000
    C388     C        0.27866    0.01640    0.27900    1.000
    H249     H        0.28440    0.03310    0.25560    1.000
    C389     C        0.28147    0.04780    0.43600    1.000
    H250     H        0.27700    0.07450    0.42180    1.000
    C390     C        0.16468    0.95970    0.54950    1.000
    C391     C        0.18599    0.08330    0.44810    1.000
    C392     C        0.14832    0.88820    0.55910    1.000
    H251     H        0.15150    0.88100    0.52880    1.000
    C393     C        0.32161    0.10010    0.20260    1.000
    H252     H        0.31520    0.07220    0.20130    1.000
    C394     C        0.16357    0.87200    0.38090    1.000
    H253     H        0.16880    0.84340    0.38790    1.000
    C395     C        0.32987    0.25940    0.08620    1.000
    C396     C        0.32546    0.98130    0.45300    1.000
    C397     C        0.25138    0.98510    0.31030    1.000
    C398     C        0.34133    0.14740    0.23900    1.000
    H254     H        0.34930    0.15280    0.26340    1.000
    C399     C        0.13025    0.22740    0.31900    1.000
    C400     C        0.29455    0.97120    0.48210    1.000
    H255     H        0.29900    0.94740    0.50060    1.000
    C401     C        0.30818    0.01010    0.31390    1.000
    C402     C        0.15338    0.17430    0.36800    1.000
    C403     C        0.11503    0.14340    0.14300    1.000
    C404     C        0.18504    0.02000    0.49900    1.000
    C405     C        0.16176    0.96810    0.50490    1.000
    H256     H        0.15220    0.95260    0.49070    1.000
    C406     C        0.32912    0.17330    0.16990    1.000
    C407     C        0.25002    0.02790    0.46180    1.000
    C408     C        0.33962    0.17830    0.20770    1.000
    H257     H        0.34600    0.20600    0.21120    1.000
    C409     C        0.13407    0.08520    0.20110    1.000
    C410     C        0.21371    0.04390    0.46810    1.000
    C411     C        0.31986    0.13360    0.16750    1.000
    H258     H        0.31220    0.12790    0.14260    1.000
    C412     C        0.14218    0.92920    0.38760    1.000
    H259     H        0.13140    0.94070    0.40020    1.000
    C413     C        0.32766    0.20180    0.13290    1.000
    C414     C        0.16566    0.14330    0.39660    1.000
    C415     C        0.18805    0.01310    0.54080    1.000
    H260     H        0.19790    0.02890    0.55340    1.000
    C416     C        0.17094    0.99500    0.48100    1.000
    H261     H        0.16810    0.99830    0.44990    1.000
    C417     C        0.22339    0.97800    0.35080    1.000
    H262     H        0.22970    0.97700    0.37860    1.000
    C418     C        0.16009    0.07210    0.25030    1.000
    H263     H        0.16410    0.10210    0.24440    1.000
    C419     C        0.27619    0.98110    0.48090    1.000
    H264     H        0.26810    0.96180    0.49650    1.000
    C420     C        0.15065    0.98070    0.26030    1.000
    H265     H        0.14800    0.94910    0.26180    1.000
    C421     C        0.14103    0.00920    0.23680    1.000
    H266     H        0.13060    0.99730    0.22280    1.000
    C422     C        0.35470    0.30560    0.05350    1.000
    H267     H        0.36380    0.28650    0.06580    1.000
    C423     C        0.22237    0.97870    0.27190    1.000
    H268     H        0.22850    0.97830    0.24370    1.000
    C424     C        0.13797    0.85860    0.58480    1.000
    H269     H        0.13500    0.82950    0.57300    1.000
    C425     C        0.17887    0.98600    0.56910    1.000
    H270     H        0.18160    0.98440    0.60040    1.000
    C426     C        0.14762    0.88300    0.40040    1.000
    C427     C        0.23221    0.98200    0.31380    1.000
    C428     C        0.23850    0.99220    0.46940    1.000
    H271     H        0.24300    0.96220    0.47250    1.000
    C429     C        0.32560    0.33310    0.04600    1.000
    H272     H        0.31320    0.32670    0.04920    1.000
    C430     C        0.13506    0.17860    0.38050    1.000
    H273     H        0.13030    0.16290    0.40590    1.000
    C431     C        0.12100    0.83670    0.65160    1.000
    C432     C        0.17198    0.10740    0.46790    1.000
    H274     H        0.16940    0.10300    0.49910    1.000
    C433     C        0.35860    0.34530    0.02480    1.000
    H275     H        0.36950    0.34470    0.00830    1.000
    C434     C        0.13223    0.87020    0.62490    1.000
    C435     C        0.32920    0.37600    0.02710    1.000
    H276     H        0.32040    0.39790    0.02000    1.000
    C436     C        0.13689    0.85560    0.42950    1.000
    C437     C        0.24397    0.07060    0.45410    1.000
    H277     H        0.25200    0.09470    0.44750    1.000
    C438     C        0.14854    0.22140    0.30650    1.000
    H278     H        0.15320    0.23670    0.28080    1.000
    C439     C        0.25958    0.00790    0.27790    1.000
    H279     H        0.25280    0.01910    0.25320    1.000
    C440     C        0.30539    0.99600    0.45680    1.000
    C441     C        0.20421    0.97480    0.35140    1.000
    H280     H        0.19780    0.97410    0.37920    1.000
    C442     C        0.16199    0.13650    0.44380    1.000
    H281     H        0.15250    0.15260    0.45790    1.000
    C443     C        0.20412    0.97610    0.27340    1.000
    H282     H        0.19750    0.97660    0.24600    1.000
    C444     C        0.12037    0.25740    0.29080    1.000
    C445     C        0.22440    0.07840    0.45630    1.000
    H283     H        0.21960    0.10750    0.44950    1.000
    C446     C        0.13079    0.13130    0.21110    1.000
    H284     H        0.13500    0.14380    0.23870    1.000
    C447     C        0.15945    0.19320    0.33210    1.000
    H285     H        0.17140    0.18780    0.32290    1.000
    C448     C        0.12471    0.20580    0.35460    1.000
    H286     H        0.11260    0.20930    0.36300    1.000
    C449     C        0.22028    0.00000    0.47260    1.000
    H287     H        0.21240    0.97530    0.47780    1.000
    C450     C        0.26215    0.96790    0.34580    1.000
    H288     H        0.25660    0.95070    0.36910    1.000
    N33      N        0.33708    0.24230    0.12540    1.000
    N34      N        0.33256    0.10950    0.23770    1.000
    N35      N        0.31694    0.19770    0.09750    1.000
    N36      N        0.34993    0.26060    0.15240    1.000
    H289     H        0.35470    0.28700    0.14540    1.000
    H290     H        0.35340    0.24600    0.17680    1.000
    N37      N        0.34820    0.38270    0.01960    1.000
    N38      N        0.31802    0.23130    0.06840    1.000
    N39      N        0.17593    0.96690    0.31020    1.000
    N40      N        0.19519    0.05070    0.47290    1.000
    O49      O        0.12425    0.27680    0.25710    1.000
    O50      O        0.10494    0.72630    0.50500    1.000
    O51      O        0.09815    0.78700    0.54780    1.000
    O52      O        0.33519    0.00460    0.42700    1.000
    O53      O        0.10787    0.21330    0.11330    1.000
    O54      O        0.32962    0.95150    0.47980    1.000
    O55      O        0.09471    0.15230    0.08350    1.000
    O56      O        0.11728    0.79860    0.63650    1.000
    O57      O        0.11600    0.84930    0.69080    1.000
    O58      O        0.31620    0.99560    0.34690    1.000
    O59      O        0.10255    0.26540    0.30710    1.000
    O60      O        0.31371    0.03280    0.28440    1.000
    Cu13     Cu       0.33695    0.05933    0.28400    1.000
    Cu14     Cu       0.35446    0.93639    0.48610    1.000
    Cu15     Cu       0.34300    0.97832    0.36606    1.000
    C451     C        0.17972    0.62290    0.87830    1.000
    H291     H        0.18310    0.62970    0.84800    1.000
    C452     C        0.11523    0.34240    0.98590    1.000
    H292     H        0.10720    0.35480    0.00750    1.000
    C453     C        0.18940    0.59200    0.90300    1.000
    H293     H        0.19880    0.57590    0.88860    1.000
    C454     C        0.16992    0.54400    0.77970    1.000
    H294     H        0.17960    0.55700    0.79610    1.000
    C455     C        0.12164    0.65830    0.68140    1.000
    H295     H        0.12000    0.68950    0.68890    1.000
    C456     C        0.11600    0.59570    0.63450    1.000
    H296     H        0.10980    0.58300    0.60940    1.000
    C457     C        0.16699    0.43990    0.83930    1.000
    C458     C        0.10578    0.26660    0.01500    1.000
    C459     C        0.12956    0.28330    0.95840    1.000
    H297     H        0.13240    0.25170    0.95950    1.000
    C460     C        0.16636    0.50120    0.78520    1.000
    C461     C        0.19574    0.47300    0.81180    1.000
    C462     C        0.10537    0.67150    0.61250    1.000
    C463     C        0.17234    0.40030    0.85190    1.000
    H298     H        0.18330    0.38990    0.83990    1.000
    C464     C        0.30049    0.53590    0.93620    1.000
    H299     H        0.30910    0.55520    0.92260    1.000
    C465     C        0.33670    0.79860    0.56100    1.000
    C466     C        0.28793    0.49990    0.81380    1.000
    C467     C        0.28016    0.47490    0.84820    1.000
    H300     H        0.28700    0.46310    0.87250    1.000
    C468     C        0.13717    0.40890    0.14580    1.000
    H301     H        0.13360    0.41590    0.17580    1.000
    C469     C        0.15105    0.45570    0.86020    1.000
    H302     H        0.14690    0.48570    0.85420    1.000
    C470     C        0.12436    0.37310    0.95790    1.000
    H303     H        0.12190    0.40480    0.95870    1.000
    C471     C        0.13897    0.30830    0.92980    1.000
    H304     H        0.14710    0.29420    0.90960    1.000
    C472     C        0.27015    0.51580    0.95890    1.000
    C473     C        0.12596    0.56770    0.66270    1.000
    H305     H        0.12720    0.53630    0.65560    1.000
    C474     C        0.11695    0.29710    0.98490    1.000
    C475     C        0.14471    0.55680    0.72990    1.000
    C476     C        0.14811    0.43830    0.11970    1.000
    H306     H        0.15170    0.46690    0.13160    1.000
    C477     C        0.15338    0.42560    0.07760    1.000
    C478     C        0.27866    0.51640    0.77900    1.000
    H307     H        0.28440    0.53310    0.75560    1.000
    C479     C        0.28147    0.54780    0.93600    1.000
    H308     H        0.27700    0.57450    0.92180    1.000
    C480     C        0.16468    0.45970    0.04950    1.000
    C481     C        0.18599    0.58330    0.94810    1.000
    C482     C        0.14832    0.38820    0.05910    1.000
    H309     H        0.15150    0.38100    0.02880    1.000
    C483     C        0.32161    0.60010    0.70260    1.000
    H310     H        0.31520    0.57220    0.70130    1.000
    C484     C        0.16357    0.37200    0.88090    1.000
    H311     H        0.16880    0.34340    0.88790    1.000
    C485     C        0.32987    0.75940    0.58620    1.000
    C486     C        0.32546    0.48130    0.95300    1.000
    C487     C        0.25138    0.48510    0.81030    1.000
    C488     C        0.34133    0.64740    0.73900    1.000
    H312     H        0.34930    0.65280    0.76340    1.000
    C489     C        0.13025    0.72740    0.81900    1.000
    C490     C        0.29455    0.47120    0.98210    1.000
    H313     H        0.29900    0.44740    0.00060    1.000
    C491     C        0.30818    0.51010    0.81390    1.000
    C492     C        0.15338    0.67430    0.86800    1.000
    C493     C        0.11503    0.64340    0.64300    1.000
    C494     C        0.18504    0.52000    0.99900    1.000
    C495     C        0.16176    0.46810    0.00490    1.000
    H314     H        0.15220    0.45260    0.99070    1.000
    C496     C        0.32912    0.67330    0.66990    1.000
    C497     C        0.25002    0.52790    0.96180    1.000
    C498     C        0.33962    0.67830    0.70770    1.000
    H315     H        0.34600    0.70600    0.71120    1.000
    C499     C        0.13407    0.58520    0.70110    1.000
    C500     C        0.21371    0.54390    0.96810    1.000
    C501     C        0.31986    0.63360    0.66750    1.000
    H316     H        0.31220    0.62790    0.64260    1.000
    C502     C        0.14218    0.42920    0.88760    1.000
    H317     H        0.13140    0.44070    0.90020    1.000
    C503     C        0.32766    0.70180    0.63290    1.000
    C504     C        0.16566    0.64330    0.89660    1.000
    C505     C        0.18805    0.51310    0.04080    1.000
    H318     H        0.19790    0.52890    0.05340    1.000
    C506     C        0.17094    0.49500    0.98100    1.000
    H319     H        0.16810    0.49830    0.94990    1.000
    C507     C        0.22339    0.47800    0.85080    1.000
    H320     H        0.22970    0.47700    0.87860    1.000
    C508     C        0.16009    0.57210    0.75030    1.000
    H321     H        0.16410    0.60210    0.74440    1.000
    C509     C        0.27619    0.48110    0.98090    1.000
    H322     H        0.26810    0.46180    0.99650    1.000
    C510     C        0.15065    0.48070    0.76030    1.000
    H323     H        0.14800    0.44910    0.76180    1.000
    C511     C        0.14103    0.50920    0.73680    1.000
    H324     H        0.13060    0.49730    0.72280    1.000
    C512     C        0.35470    0.80560    0.55350    1.000
    H325     H        0.36380    0.78650    0.56580    1.000
    C513     C        0.22237    0.47870    0.77190    1.000
    H326     H        0.22850    0.47830    0.74370    1.000
    C514     C        0.13797    0.35860    0.08480    1.000
    H327     H        0.13500    0.32950    0.07300    1.000
    C515     C        0.17887    0.48600    0.06910    1.000
    H328     H        0.18160    0.48440    0.10040    1.000
    C516     C        0.14762    0.38300    0.90040    1.000
    C517     C        0.23221    0.48200    0.81380    1.000
    C518     C        0.23850    0.49220    0.96940    1.000
    H329     H        0.24300    0.46220    0.97250    1.000
    C519     C        0.32560    0.83310    0.54600    1.000
    H330     H        0.31320    0.82670    0.54920    1.000
    C520     C        0.13506    0.67860    0.88050    1.000
    H331     H        0.13030    0.66290    0.90590    1.000
    C521     C        0.12100    0.33670    0.15160    1.000
    C522     C        0.17198    0.60740    0.96790    1.000
    H332     H        0.16940    0.60300    0.99910    1.000
    C523     C        0.35860    0.84530    0.52480    1.000
    H333     H        0.36950    0.84470    0.50830    1.000
    C524     C        0.13223    0.37020    0.12490    1.000
    C525     C        0.32920    0.87600    0.52710    1.000
    H334     H        0.32040    0.89790    0.52000    1.000
    C526     C        0.13689    0.35560    0.92950    1.000
    C527     C        0.24397    0.57060    0.95410    1.000
    H335     H        0.25200    0.59470    0.94750    1.000
    C528     C        0.14854    0.72140    0.80650    1.000
    H336     H        0.15320    0.73670    0.78080    1.000
    C529     C        0.25958    0.50790    0.77790    1.000
    H337     H        0.25280    0.51910    0.75320    1.000
    C530     C        0.30539    0.49600    0.95680    1.000
    C531     C        0.20421    0.47480    0.85140    1.000
    H338     H        0.19780    0.47410    0.87920    1.000
    C532     C        0.16199    0.63650    0.94380    1.000
    H339     H        0.15250    0.65260    0.95790    1.000
    C533     C        0.20412    0.47610    0.77340    1.000
    H340     H        0.19750    0.47660    0.74600    1.000
    C534     C        0.12037    0.75740    0.79080    1.000
    C535     C        0.22440    0.57840    0.95630    1.000
    H341     H        0.21960    0.60750    0.94950    1.000
    C536     C        0.13079    0.63130    0.71110    1.000
    H342     H        0.13500    0.64380    0.73870    1.000
    C537     C        0.15945    0.69320    0.83210    1.000
    H343     H        0.17140    0.68780    0.82290    1.000
    C538     C        0.12471    0.70580    0.85460    1.000
    H344     H        0.11260    0.70930    0.86300    1.000
    C539     C        0.22028    0.50000    0.97260    1.000
    H345     H        0.21240    0.47530    0.97780    1.000
    C540     C        0.26215    0.46790    0.84580    1.000
    H346     H        0.25660    0.45070    0.86910    1.000
    N41      N        0.33708    0.74230    0.62540    1.000
    N42      N        0.33256    0.60950    0.73770    1.000
    N43      N        0.31694    0.69770    0.59750    1.000
    N44      N        0.34993    0.76060    0.65240    1.000
    H347     H        0.35470    0.78700    0.64540    1.000
    H348     H        0.35340    0.74600    0.67680    1.000
    N45      N        0.34820    0.88270    0.51960    1.000
    N46      N        0.31802    0.73130    0.56840    1.000
    N47      N        0.17593    0.46690    0.81020    1.000
    N48      N        0.19519    0.55070    0.97290    1.000
    O61      O        0.12425    0.77680    0.75710    1.000
    O62      O        0.10494    0.22630    0.00500    1.000
    O63      O        0.09815    0.28700    0.04780    1.000
    O64      O        0.33519    0.50460    0.92700    1.000
    O65      O        0.10787    0.71330    0.61330    1.000
    O66      O        0.32962    0.45150    0.97980    1.000
    O67      O        0.09471    0.65230    0.58350    1.000
    O68      O        0.11728    0.29860    0.13650    1.000
    O69      O        0.11600    0.34930    0.19080    1.000
    O70      O        0.31620    0.49560    0.84690    1.000
    O71      O        0.10255    0.76540    0.80710    1.000
    O72      O        0.31371    0.53280    0.78440    1.000
    Cu16     Cu       0.33695    0.55933    0.78400    1.000
    Cu17     Cu       0.35446    0.43639    0.98610    1.000
    Cu18     Cu       0.34300    0.47832    0.86606    1.000
    C541     C        0.67972    0.12290    0.87830    1.000
    H349     H        0.68310    0.12970    0.84800    1.000
    C542     C        0.61523    0.84240    0.98590    1.000
    H350     H        0.60720    0.85480    0.00750    1.000
    C543     C        0.68940    0.09200    0.90300    1.000
    H351     H        0.69880    0.07590    0.88860    1.000
    C544     C        0.66992    0.04400    0.77970    1.000
    H352     H        0.67960    0.05700    0.79610    1.000
    C545     C        0.62164    0.15830    0.68140    1.000
    H353     H        0.62000    0.18950    0.68890    1.000
    C546     C        0.61600    0.09570    0.63450    1.000
    H354     H        0.60980    0.08300    0.60940    1.000
    C547     C        0.66699    0.93990    0.83930    1.000
    C548     C        0.60578    0.76660    0.01500    1.000
    C549     C        0.62956    0.78330    0.95840    1.000
    H355     H        0.63240    0.75170    0.95950    1.000
    C550     C        0.66636    0.00120    0.78520    1.000
    C551     C        0.69574    0.97300    0.81180    1.000
    C552     C        0.60537    0.17150    0.61250    1.000
    C553     C        0.67234    0.90030    0.85190    1.000
    H356     H        0.68330    0.88990    0.83990    1.000
    C554     C        0.80049    0.03590    0.93620    1.000
    H357     H        0.80910    0.05520    0.92260    1.000
    C555     C        0.83670    0.29860    0.56100    1.000
    C556     C        0.78793    0.99990    0.81380    1.000
    C557     C        0.78016    0.97490    0.84820    1.000
    H358     H        0.78700    0.96310    0.87250    1.000
    C558     C        0.63717    0.90890    0.14580    1.000
    H359     H        0.63360    0.91590    0.17580    1.000
    C559     C        0.65105    0.95570    0.86020    1.000
    H360     H        0.64690    0.98570    0.85420    1.000
    C560     C        0.62436    0.87310    0.95790    1.000
    H361     H        0.62190    0.90480    0.95870    1.000
    C561     C        0.63897    0.80830    0.92980    1.000
    H362     H        0.64710    0.79420    0.90960    1.000
    C562     C        0.77015    0.01580    0.95890    1.000
    C563     C        0.62596    0.06770    0.66270    1.000
    H363     H        0.62720    0.03630    0.65560    1.000
    C564     C        0.61695    0.79710    0.98490    1.000
    C565     C        0.64471    0.05680    0.72990    1.000
    C566     C        0.64811    0.93830    0.11970    1.000
    H364     H        0.65170    0.96690    0.13160    1.000
    C567     C        0.65338    0.92560    0.07760    1.000
    C568     C        0.77866    0.01640    0.77900    1.000
    H365     H        0.78440    0.03310    0.75560    1.000
    C569     C        0.78147    0.04780    0.93600    1.000
    H366     H        0.77700    0.07450    0.92180    1.000
    C570     C        0.66468    0.95970    0.04950    1.000
    C571     C        0.68599    0.08330    0.94810    1.000
    C572     C        0.64832    0.88820    0.05910    1.000
    H367     H        0.65150    0.88100    0.02880    1.000
    C573     C        0.82161    0.10010    0.70260    1.000
    H368     H        0.81520    0.07220    0.70130    1.000
    C574     C        0.66357    0.87200    0.88090    1.000
    H369     H        0.66880    0.84340    0.88790    1.000
    C575     C        0.82987    0.25940    0.58620    1.000
    C576     C        0.82546    0.98130    0.95300    1.000
    C577     C        0.75138    0.98510    0.81030    1.000
    C578     C        0.84133    0.14740    0.73900    1.000
    H370     H        0.84930    0.15280    0.76340    1.000
    C579     C        0.63025    0.22740    0.81900    1.000
    C580     C        0.79455    0.97120    0.98210    1.000
    H371     H        0.79900    0.94740    0.00060    1.000
    C581     C        0.80818    0.01010    0.81390    1.000
    C582     C        0.65338    0.17430    0.86800    1.000
    C583     C        0.61503    0.14340    0.64300    1.000
    C584     C        0.68504    0.02000    0.99900    1.000
    C585     C        0.66176    0.96810    0.00490    1.000
    H372     H        0.65220    0.95260    0.99070    1.000
    C586     C        0.82912    0.17330    0.66990    1.000
    C587     C        0.75002    0.02790    0.96180    1.000
    C588     C        0.83962    0.17830    0.70770    1.000
    H373     H        0.84600    0.20600    0.71120    1.000
    C589     C        0.63407    0.08520    0.70110    1.000
    C590     C        0.71371    0.04390    0.96810    1.000
    C591     C        0.81986    0.13360    0.66750    1.000
    H374     H        0.81220    0.12790    0.64260    1.000
    C592     C        0.64218    0.92920    0.88760    1.000
    H375     H        0.63140    0.94070    0.90020    1.000
    C593     C        0.82766    0.20180    0.63290    1.000
    C594     C        0.66566    0.14330    0.89660    1.000
    C595     C        0.68805    0.01310    0.04080    1.000
    H376     H        0.69790    0.02890    0.05340    1.000
    C596     C        0.67094    0.99500    0.98100    1.000
    H377     H        0.66810    0.99830    0.94990    1.000
    C597     C        0.72339    0.97800    0.85080    1.000
    H378     H        0.72970    0.97700    0.87860    1.000
    C598     C        0.66009    0.07210    0.75030    1.000
    H379     H        0.66410    0.10210    0.74440    1.000
    C599     C        0.77619    0.98110    0.98090    1.000
    H380     H        0.76810    0.96180    0.99650    1.000
    C600     C        0.65065    0.98070    0.76030    1.000
    H381     H        0.64800    0.94910    0.76180    1.000
    C601     C        0.64103    0.00920    0.73680    1.000
    H382     H        0.63060    0.99730    0.72280    1.000
    C602     C        0.85470    0.30560    0.55350    1.000
    H383     H        0.86380    0.28650    0.56580    1.000
    C603     C        0.72237    0.97870    0.77190    1.000
    H384     H        0.72850    0.97830    0.74370    1.000
    C604     C        0.63797    0.85860    0.08480    1.000
    H385     H        0.63500    0.82950    0.07300    1.000
    C605     C        0.67887    0.98600    0.06910    1.000
    H386     H        0.68160    0.98440    0.10040    1.000
    C606     C        0.64762    0.88300    0.90040    1.000
    C607     C        0.73221    0.98200    0.81380    1.000
    C608     C        0.73850    0.99220    0.96940    1.000
    H387     H        0.74300    0.96220    0.97250    1.000
    C609     C        0.82560    0.33310    0.54600    1.000
    H388     H        0.81320    0.32670    0.54920    1.000
    C610     C        0.63506    0.17860    0.88050    1.000
    H389     H        0.63030    0.16290    0.90590    1.000
    C611     C        0.62100    0.83670    0.15160    1.000
    C612     C        0.67198    0.10740    0.96790    1.000
    H390     H        0.66940    0.10300    0.99910    1.000
    C613     C        0.85860    0.34530    0.52480    1.000
    H391     H        0.86950    0.34470    0.50830    1.000
    C614     C        0.63223    0.87020    0.12490    1.000
    C615     C        0.82920    0.37600    0.52710    1.000
    H392     H        0.82040    0.39790    0.52000    1.000
    C616     C        0.63689    0.85560    0.92950    1.000
    C617     C        0.74397    0.07060    0.95410    1.000
    H393     H        0.75200    0.09470    0.94750    1.000
    C618     C        0.64854    0.22140    0.80650    1.000
    H394     H        0.65320    0.23670    0.78080    1.000
    C619     C        0.75958    0.00790    0.77790    1.000
    H395     H        0.75280    0.01910    0.75320    1.000
    C620     C        0.80539    0.99600    0.95680    1.000
    C621     C        0.70421    0.97480    0.85140    1.000
    H396     H        0.69780    0.97410    0.87920    1.000
    C622     C        0.66199    0.13650    0.94380    1.000
    H397     H        0.65250    0.15260    0.95790    1.000
    C623     C        0.70412    0.97610    0.77340    1.000
    H398     H        0.69750    0.97660    0.74600    1.000
    C624     C        0.62037    0.25740    0.79080    1.000
    C625     C        0.72440    0.07840    0.95630    1.000
    H399     H        0.71960    0.10750    0.94950    1.000
    C626     C        0.63079    0.13130    0.71110    1.000
    H400     H        0.63500    0.14380    0.73870    1.000
    C627     C        0.65945    0.19320    0.83210    1.000
    H401     H        0.67140    0.18780    0.82290    1.000
    C628     C        0.62471    0.20580    0.85460    1.000
    H402     H        0.61260    0.20930    0.86300    1.000
    C629     C        0.72028    0.00000    0.97260    1.000
    H403     H        0.71240    0.97530    0.97780    1.000
    C630     C        0.76215    0.96790    0.84580    1.000
    H404     H        0.75660    0.95070    0.86910    1.000
    N49      N        0.83708    0.24230    0.62540    1.000
    N50      N        0.83256    0.10950    0.73770    1.000
    N51      N        0.81694    0.19770    0.59750    1.000
    N52      N        0.84993    0.26060    0.65240    1.000
    H405     H        0.85470    0.28700    0.64540    1.000
    H406     H        0.85340    0.24600    0.67680    1.000
    N53      N        0.84820    0.38270    0.51960    1.000
    N54      N        0.81802    0.23130    0.56840    1.000
    N55      N        0.67593    0.96690    0.81020    1.000
    N56      N        0.69519    0.05070    0.97290    1.000
    O73      O        0.62425    0.27680    0.75710    1.000
    O74      O        0.60494    0.72630    0.00500    1.000
    O75      O        0.59815    0.78700    0.04780    1.000
    O76      O        0.83519    0.00460    0.92700    1.000
    O77      O        0.60787    0.21330    0.61330    1.000
    O78      O        0.82962    0.95150    0.97980    1.000
    O79      O        0.59471    0.15230    0.58350    1.000
    O80      O        0.61728    0.79860    0.13650    1.000
    O81      O        0.61600    0.84930    0.19080    1.000
    O82      O        0.81620    0.99560    0.84690    1.000
    O83      O        0.60255    0.26540    0.80710    1.000
    O84      O        0.81371    0.03280    0.78440    1.000
    Cu19     Cu       0.83695    0.05933    0.78400    1.000
    Cu20     Cu       0.85446    0.93639    0.98610    1.000
    Cu21     Cu       0.84300    0.97832    0.86606    1.000
    C631     C        0.67972    0.62290    0.37830    1.000
    H407     H        0.68310    0.62970    0.34800    1.000
    C632     C        0.61523    0.34240    0.48590    1.000
    H408     H        0.60720    0.35480    0.50750    1.000
    C633     C        0.68940    0.59200    0.40300    1.000
    H409     H        0.69880    0.57590    0.38860    1.000
    C634     C        0.66992    0.54400    0.27970    1.000
    H410     H        0.67960    0.55700    0.29610    1.000
    C635     C        0.62164    0.65830    0.18140    1.000
    H411     H        0.62000    0.68950    0.18890    1.000
    C636     C        0.61600    0.59570    0.13450    1.000
    H412     H        0.60980    0.58300    0.10940    1.000
    C637     C        0.66699    0.43990    0.33930    1.000
    C638     C        0.60578    0.26660    0.51500    1.000
    C639     C        0.62956    0.28330    0.45840    1.000
    H413     H        0.63240    0.25170    0.45950    1.000
    C640     C        0.66636    0.50120    0.28520    1.000
    C641     C        0.69574    0.47300    0.31180    1.000
    C642     C        0.60537    0.67150    0.11250    1.000
    C643     C        0.67234    0.40030    0.35190    1.000
    H414     H        0.68330    0.38990    0.33990    1.000
    C644     C        0.80049    0.53590    0.43620    1.000
    H415     H        0.80910    0.55520    0.42260    1.000
    C645     C        0.83670    0.79860    0.06100    1.000
    C646     C        0.78793    0.49990    0.31380    1.000
    C647     C        0.78016    0.47490    0.34820    1.000
    H416     H        0.78700    0.46310    0.37250    1.000
    C648     C        0.63717    0.40890    0.64580    1.000
    H417     H        0.63360    0.41590    0.67580    1.000
    C649     C        0.65105    0.45570    0.36020    1.000
    H418     H        0.64690    0.48570    0.35420    1.000
    C650     C        0.62436    0.37310    0.45790    1.000
    H419     H        0.62190    0.40480    0.45870    1.000
    C651     C        0.63897    0.30830    0.42980    1.000
    H420     H        0.64710    0.29420    0.40960    1.000
    C652     C        0.77015    0.51580    0.45890    1.000
    C653     C        0.62596    0.56770    0.16270    1.000
    H421     H        0.62720    0.53630    0.15560    1.000
    C654     C        0.61695    0.29710    0.48490    1.000
    C655     C        0.64471    0.55680    0.22990    1.000
    C656     C        0.64811    0.43830    0.61970    1.000
    H422     H        0.65170    0.46690    0.63160    1.000
    C657     C        0.65338    0.42560    0.57760    1.000
    C658     C        0.77866    0.51640    0.27900    1.000
    H423     H        0.78440    0.53310    0.25560    1.000
    C659     C        0.78147    0.54780    0.43600    1.000
    H424     H        0.77700    0.57450    0.42180    1.000
    C660     C        0.66468    0.45970    0.54950    1.000
    C661     C        0.68599    0.58330    0.44810    1.000
    C662     C        0.64832    0.38820    0.55910    1.000
    H425     H        0.65150    0.38100    0.52880    1.000
    C663     C        0.82161    0.60010    0.20260    1.000
    H426     H        0.81520    0.57220    0.20130    1.000
    C664     C        0.66357    0.37200    0.38090    1.000
    H427     H        0.66880    0.34340    0.38790    1.000
    C665     C        0.82987    0.75940    0.08620    1.000
    C666     C        0.82546    0.48130    0.45300    1.000
    C667     C        0.75138    0.48510    0.31030    1.000
    C668     C        0.84133    0.64740    0.23900    1.000
    H428     H        0.84930    0.65280    0.26340    1.000
    C669     C        0.63025    0.72740    0.31900    1.000
    C670     C        0.79455    0.47120    0.48210    1.000
    H429     H        0.79900    0.44740    0.50060    1.000
    C671     C        0.80818    0.51010    0.31390    1.000
    C672     C        0.65338    0.67430    0.36800    1.000
    C673     C        0.61503    0.64340    0.14300    1.000
    C674     C        0.68504    0.52000    0.49900    1.000
    C675     C        0.66176    0.46810    0.50490    1.000
    H430     H        0.65220    0.45260    0.49070    1.000
    C676     C        0.82912    0.67330    0.16990    1.000
    C677     C        0.75002    0.52790    0.46180    1.000
    C678     C        0.83962    0.67830    0.20770    1.000
    H431     H        0.84600    0.70600    0.21120    1.000
    C679     C        0.63407    0.58520    0.20110    1.000
    C680     C        0.71371    0.54390    0.46810    1.000
    C681     C        0.81986    0.63360    0.16750    1.000
    H432     H        0.81220    0.62790    0.14260    1.000
    C682     C        0.64218    0.42920    0.38760    1.000
    H433     H        0.63140    0.44070    0.40020    1.000
    C683     C        0.82766    0.70180    0.13290    1.000
    C684     C        0.66566    0.64330    0.39660    1.000
    C685     C        0.68805    0.51310    0.54080    1.000
    H434     H        0.69790    0.52890    0.55340    1.000
    C686     C        0.67094    0.49500    0.48100    1.000
    H435     H        0.66810    0.49830    0.44990    1.000
    C687     C        0.72339    0.47800    0.35080    1.000
    H436     H        0.72970    0.47700    0.37860    1.000
    C688     C        0.66009    0.57210    0.25030    1.000
    H437     H        0.66410    0.60210    0.24440    1.000
    C689     C        0.77619    0.48110    0.48090    1.000
    H438     H        0.76810    0.46180    0.49650    1.000
    C690     C        0.65065    0.48070    0.26030    1.000
    H439     H        0.64800    0.44910    0.26180    1.000
    C691     C        0.64103    0.50920    0.23680    1.000
    H440     H        0.63060    0.49730    0.22280    1.000
    C692     C        0.85470    0.80560    0.05350    1.000
    H441     H        0.86380    0.78650    0.06580    1.000
    C693     C        0.72237    0.47870    0.27190    1.000
    H442     H        0.72850    0.47830    0.24370    1.000
    C694     C        0.63797    0.35860    0.58480    1.000
    H443     H        0.63500    0.32950    0.57300    1.000
    C695     C        0.67887    0.48600    0.56910    1.000
    H444     H        0.68160    0.48440    0.60040    1.000
    C696     C        0.64762    0.38300    0.40040    1.000
    C697     C        0.73221    0.48200    0.31380    1.000
    C698     C        0.73850    0.49220    0.46940    1.000
    H445     H        0.74300    0.46220    0.47250    1.000
    C699     C        0.82560    0.83310    0.04600    1.000
    H446     H        0.81320    0.82670    0.04920    1.000
    C700     C        0.63506    0.67860    0.38050    1.000
    H447     H        0.63030    0.66290    0.40590    1.000
    C701     C        0.62100    0.33670    0.65160    1.000
    C702     C        0.67198    0.60740    0.46790    1.000
    H448     H        0.66940    0.60300    0.49910    1.000
    C703     C        0.85860    0.84530    0.02480    1.000
    H449     H        0.86950    0.84470    0.00830    1.000
    C704     C        0.63223    0.37020    0.62490    1.000
    C705     C        0.82920    0.87600    0.02710    1.000
    H450     H        0.82040    0.89790    0.02000    1.000
    C706     C        0.63689    0.35560    0.42950    1.000
    C707     C        0.74397    0.57060    0.45410    1.000
    H451     H        0.75200    0.59470    0.44750    1.000
    C708     C        0.64854    0.72140    0.30650    1.000
    H452     H        0.65320    0.73670    0.28080    1.000
    C709     C        0.75958    0.50790    0.27790    1.000
    H453     H        0.75280    0.51910    0.25320    1.000
    C710     C        0.80539    0.49600    0.45680    1.000
    C711     C        0.70421    0.47480    0.35140    1.000
    H454     H        0.69780    0.47410    0.37920    1.000
    C712     C        0.66199    0.63650    0.44380    1.000
    H455     H        0.65250    0.65260    0.45790    1.000
    C713     C        0.70412    0.47610    0.27340    1.000
    H456     H        0.69750    0.47660    0.24600    1.000
    C714     C        0.62037    0.75740    0.29080    1.000
    C715     C        0.72440    0.57840    0.45630    1.000
    H457     H        0.71960    0.60750    0.44950    1.000
    C716     C        0.63079    0.63130    0.21110    1.000
    H458     H        0.63500    0.64380    0.23870    1.000
    C717     C        0.65945    0.69320    0.33210    1.000
    H459     H        0.67140    0.68780    0.32290    1.000
    C718     C        0.62471    0.70580    0.35460    1.000
    H460     H        0.61260    0.70930    0.36300    1.000
    C719     C        0.72028    0.50000    0.47260    1.000
    H461     H        0.71240    0.47530    0.47780    1.000
    C720     C        0.76215    0.46790    0.34580    1.000
    H462     H        0.75660    0.45070    0.36910    1.000
    N57      N        0.83708    0.74230    0.12540    1.000
    N58      N        0.83256    0.60950    0.23770    1.000
    N59      N        0.81694    0.69770    0.09750    1.000
    N60      N        0.84993    0.76060    0.15240    1.000
    H463     H        0.85470    0.78700    0.14540    1.000
    H464     H        0.85340    0.74600    0.17680    1.000
    N61      N        0.84820    0.88270    0.01960    1.000
    N62      N        0.81802    0.73130    0.06840    1.000
    N63      N        0.67593    0.46690    0.31020    1.000
    N64      N        0.69519    0.55070    0.47290    1.000
    O85      O        0.62425    0.77680    0.25710    1.000
    O86      O        0.60494    0.22630    0.50500    1.000
    O87      O        0.59815    0.28700    0.54780    1.000
    O88      O        0.83519    0.50460    0.42700    1.000
    O89      O        0.60787    0.71330    0.11330    1.000
    O90      O        0.82962    0.45150    0.47980    1.000
    O91      O        0.59471    0.65230    0.08350    1.000
    O92      O        0.61728    0.29860    0.63650    1.000
    O93      O        0.61600    0.34930    0.69080    1.000
    O94      O        0.81620    0.49560    0.34690    1.000
    O95      O        0.60255    0.76540    0.30710    1.000
    O96      O        0.81371    0.53280    0.28440    1.000
    Cu22     Cu       0.83695    0.55933    0.28400    1.000
    Cu23     Cu       0.85446    0.43639    0.48610    1.000
    Cu24     Cu       0.84300    0.47832    0.36606    1.000
    C721     C        0.07028    0.87290    0.12830    1.000
    H465     H        0.06690    0.87970    0.09800    1.000
    C722     C        0.13477    0.59240    0.23590    1.000
    H466     H        0.14280    0.60480    0.25750    1.000
    C723     C        0.06060    0.84200    0.15300    1.000
    H467     H        0.05120    0.82590    0.13860    1.000
    C724     C        0.08008    0.79400    0.02970    1.000
    H468     H        0.07040    0.80700    0.04610    1.000
    C725     C        0.12836    0.90830    0.93140    1.000
    H469     H        0.13000    0.93950    0.93890    1.000
    C726     C        0.13400    0.84570    0.88450    1.000
    H470     H        0.14020    0.83300    0.85940    1.000
    C727     C        0.08301    0.68990    0.08930    1.000
    C728     C        0.14422    0.51660    0.26500    1.000
    C729     C        0.12044    0.53330    0.20840    1.000
    H471     H        0.11760    0.50170    0.20950    1.000
    C730     C        0.08364    0.75120    0.03520    1.000
    C731     C        0.05426    0.72300    0.06180    1.000
    C732     C        0.14463    0.92150    0.86250    1.000
    C733     C        0.07766    0.65030    0.10190    1.000
    H472     H        0.06670    0.63990    0.08990    1.000
    C734     C        0.94951    0.78590    0.18620    1.000
    H473     H        0.94090    0.80520    0.17260    1.000
    C735     C        0.91330    0.04860    0.81100    1.000
    C736     C        0.96207    0.74990    0.06380    1.000
    C737     C        0.96984    0.72490    0.09820    1.000
    H474     H        0.96300    0.71310    0.12250    1.000
    C738     C        0.11283    0.65890    0.39580    1.000
    H475     H        0.11640    0.66590    0.42580    1.000
    C739     C        0.09895    0.70570    0.11020    1.000
    H476     H        0.10310    0.73570    0.10420    1.000
    C740     C        0.12564    0.62310    0.20790    1.000
    H477     H        0.12810    0.65480    0.20870    1.000
    C741     C        0.11103    0.55830    0.17980    1.000
    H478     H        0.10290    0.54420    0.15960    1.000
    C742     C        0.97985    0.76580    0.20890    1.000
    C743     C        0.12404    0.81770    0.91270    1.000
    H479     H        0.12280    0.78630    0.90560    1.000
    C744     C        0.13305    0.54710    0.23490    1.000
    C745     C        0.10529    0.80680    0.97990    1.000
    C746     C        0.10189    0.68830    0.36970    1.000
    H480     H        0.09830    0.71690    0.38160    1.000
    C747     C        0.09662    0.67560    0.32760    1.000
    C748     C        0.97134    0.76640    0.02900    1.000
    H481     H        0.96560    0.78310    0.00560    1.000
    C749     C        0.96853    0.79780    0.18600    1.000
    H482     H        0.97300    0.82450    0.17180    1.000
    C750     C        0.08532    0.70970    0.29950    1.000
    C751     C        0.06401    0.83330    0.19810    1.000
    C752     C        0.10168    0.63820    0.30910    1.000
    H483     H        0.09850    0.63100    0.27880    1.000
    C753     C        0.92839    0.85010    0.95260    1.000
    H484     H        0.93480    0.82220    0.95130    1.000
    C754     C        0.08643    0.62200    0.13090    1.000
    H485     H        0.08120    0.59340    0.13790    1.000
    C755     C        0.92013    0.00940    0.83620    1.000
    C756     C        0.92454    0.73130    0.20300    1.000
    C757     C        0.99862    0.73510    0.06030    1.000
    C758     C        0.90867    0.89740    0.98900    1.000
    H486     H        0.90070    0.90280    0.01340    1.000
    C759     C        0.11975    0.97740    0.06900    1.000
    C760     C        0.95545    0.72120    0.23210    1.000
    H487     H        0.95100    0.69740    0.25060    1.000
    C761     C        0.94182    0.76010    0.06390    1.000
    C762     C        0.09662    0.92430    0.11800    1.000
    C763     C        0.13497    0.89340    0.89300    1.000
    C764     C        0.06496    0.77000    0.24900    1.000
    C765     C        0.08824    0.71810    0.25490    1.000
    H488     H        0.09780    0.70260    0.24070    1.000
    C766     C        0.92088    0.92330    0.91990    1.000
    C767     C        0.99998    0.77790    0.21180    1.000
    C768     C        0.91038    0.92830    0.95770    1.000
    H489     H        0.90400    0.95600    0.96120    1.000
    C769     C        0.11593    0.83520    0.95110    1.000
    C770     C        0.03629    0.79390    0.21810    1.000
    C771     C        0.93014    0.88360    0.91750    1.000
    H490     H        0.93780    0.87790    0.89260    1.000
    C772     C        0.10782    0.67920    0.13760    1.000
    H491     H        0.11860    0.69070    0.15020    1.000
    C773     C        0.92234    0.95180    0.88290    1.000
    C774     C        0.08434    0.89330    0.14660    1.000
    C775     C        0.06195    0.76310    0.29080    1.000
    H492     H        0.05210    0.77890    0.30340    1.000
    C776     C        0.07906    0.74500    0.23100    1.000
    H493     H        0.08190    0.74830    0.19990    1.000
    C777     C        0.02661    0.72800    0.10080    1.000
    H494     H        0.02030    0.72700    0.12860    1.000
    C778     C        0.08991    0.82210    0.00030    1.000
    H495     H        0.08590    0.85210    0.99440    1.000
    C779     C        0.97381    0.73110    0.23090    1.000
    H496     H        0.98190    0.71180    0.24650    1.000
    C780     C        0.09935    0.73070    0.01030    1.000
    H497     H        0.10200    0.69910    0.01180    1.000
    C781     C        0.10897    0.75920    0.98680    1.000
    H498     H        0.11940    0.74730    0.97280    1.000
    C782     C        0.89530    0.05560    0.80350    1.000
    H499     H        0.88620    0.03650    0.81580    1.000
    C783     C        0.02763    0.72870    0.02190    1.000
    H500     H        0.02150    0.72830    0.99370    1.000
    C784     C        0.11203    0.60860    0.33480    1.000
    H501     H        0.11500    0.57950    0.32300    1.000
    C785     C        0.07113    0.73600    0.31910    1.000
    H502     H        0.06840    0.73440    0.35040    1.000
    C786     C        0.10238    0.63300    0.15040    1.000
    C787     C        0.01779    0.73200    0.06380    1.000
    C788     C        0.01150    0.74220    0.21940    1.000
    H503     H        0.00700    0.71220    0.22250    1.000
    C789     C        0.92440    0.08310    0.79600    1.000
    H504     H        0.93680    0.07670    0.79920    1.000
    C790     C        0.11494    0.92860    0.13050    1.000
    H505     H        0.11970    0.91290    0.15590    1.000
    C791     C        0.12900    0.58670    0.40160    1.000
    C792     C        0.07802    0.85740    0.21790    1.000
    H506     H        0.08060    0.85300    0.24910    1.000
    C793     C        0.89140    0.09530    0.77480    1.000
    H507     H        0.88050    0.09470    0.75830    1.000
    C794     C        0.11777    0.62020    0.37490    1.000
    C795     C        0.92080    0.12600    0.77710    1.000
    H508     H        0.92960    0.14790    0.77000    1.000
    C796     C        0.11311    0.60560    0.17950    1.000
    C797     C        0.00603    0.82060    0.20410    1.000
    H509     H        0.99800    0.84470    0.19750    1.000
    C798     C        0.10146    0.97140    0.05650    1.000
    H510     H        0.09680    0.98670    0.03080    1.000
    C799     C        0.99042    0.75790    0.02790    1.000
    H511     H        0.99720    0.76910    0.00320    1.000
    C800     C        0.94461    0.74600    0.20680    1.000
    C801     C        0.04579    0.72480    0.10140    1.000
    H512     H        0.05220    0.72410    0.12920    1.000
    C802     C        0.08801    0.88650    0.19380    1.000
    H513     H        0.09750    0.90260    0.20790    1.000
    C803     C        0.04588    0.72610    0.02340    1.000
    H514     H        0.05250    0.72660    0.99600    1.000
    C804     C        0.12963    0.00740    0.04080    1.000
    C805     C        0.02560    0.82840    0.20630    1.000
    H515     H        0.03040    0.85750    0.19950    1.000
    C806     C        0.11921    0.88130    0.96110    1.000
    H516     H        0.11500    0.89380    0.98870    1.000
    C807     C        0.09055    0.94320    0.08210    1.000
    H517     H        0.07860    0.93780    0.07290    1.000
    C808     C        0.12529    0.95580    0.10460    1.000
    H518     H        0.13740    0.95930    0.11300    1.000
    C809     C        0.02972    0.75000    0.22260    1.000
    H519     H        0.03760    0.72530    0.22780    1.000
    C810     C        0.98785    0.71790    0.09580    1.000
    H520     H        0.99340    0.70070    0.11910    1.000
    N65      N        0.91292    0.99230    0.87540    1.000
    N66      N        0.91744    0.85950    0.98770    1.000
    N67      N        0.93306    0.94770    0.84750    1.000
    N68      N        0.90007    0.01060    0.90240    1.000
    H521     H        0.89530    0.03700    0.89540    1.000
    H522     H        0.89660    0.99600    0.92680    1.000
    N69      N        0.90180    0.13270    0.76960    1.000
    N70      N        0.93198    0.98130    0.81840    1.000
    N71      N        0.07407    0.71690    0.06020    1.000
    N72      N        0.05481    0.80070    0.22290    1.000
    O97      O        0.12575    0.02680    0.00710    1.000
    O98      O        0.14506    0.47630    0.25500    1.000
    O99      O        0.15185    0.53700    0.29780    1.000
    O100     O        0.91481    0.75460    0.17700    1.000
    O101     O        0.14213    0.96330    0.86330    1.000
    O102     O        0.92038    0.70150    0.22980    1.000
    O103     O        0.15529    0.90230    0.83350    1.000
    O104     O        0.13272    0.54860    0.38650    1.000
    O105     O        0.13400    0.59930    0.44080    1.000
    O106     O        0.93380    0.74560    0.09690    1.000
    O107     O        0.14745    0.01540    0.05710    1.000
    O108     O        0.93629    0.78280    0.03440    1.000
    Cu25     Cu       0.91306    0.80933    0.03400    1.000
    Cu26     Cu       0.89554    0.68639    0.23610    1.000
    Cu27     Cu       0.90700    0.72832    0.11606    1.000
    C811     C        0.07028    0.37290    0.62830    1.000
    H523     H        0.06690    0.37970    0.59800    1.000
    C812     C        0.13477    0.09240    0.73590    1.000
    H524     H        0.14280    0.10480    0.75750    1.000
    C813     C        0.06060    0.34200    0.65300    1.000
    H525     H        0.05120    0.32590    0.63860    1.000
    C814     C        0.08008    0.29400    0.52970    1.000
    H526     H        0.07040    0.30700    0.54610    1.000
    C815     C        0.12836    0.40830    0.43140    1.000
    H527     H        0.13000    0.43950    0.43890    1.000
    C816     C        0.13400    0.34570    0.38450    1.000
    H528     H        0.14020    0.33300    0.35940    1.000
    C817     C        0.08301    0.18990    0.58930    1.000
    C818     C        0.14422    0.01660    0.76500    1.000
    C819     C        0.12044    0.03330    0.70840    1.000
    H529     H        0.11760    0.00170    0.70950    1.000
    C820     C        0.08364    0.25120    0.53520    1.000
    C821     C        0.05426    0.22300    0.56180    1.000
    C822     C        0.14463    0.42150    0.36250    1.000
    C823     C        0.07766    0.15030    0.60190    1.000
    H530     H        0.06670    0.13990    0.58990    1.000
    C824     C        0.94951    0.28590    0.68620    1.000
    H531     H        0.94090    0.30520    0.67260    1.000
    C825     C        0.91330    0.54860    0.31100    1.000
    C826     C        0.96207    0.24990    0.56380    1.000
    C827     C        0.96984    0.22490    0.59820    1.000
    H532     H        0.96300    0.21310    0.62250    1.000
    C828     C        0.11283    0.15890    0.89580    1.000
    H533     H        0.11640    0.16590    0.92580    1.000
    C829     C        0.09895    0.20570    0.61020    1.000
    H534     H        0.10310    0.23570    0.60420    1.000
    C830     C        0.12564    0.12310    0.70790    1.000
    H535     H        0.12810    0.15480    0.70870    1.000
    C831     C        0.11103    0.05830    0.67980    1.000
    H536     H        0.10290    0.04420    0.65960    1.000
    C832     C        0.97985    0.26580    0.70890    1.000
    C833     C        0.12404    0.31770    0.41270    1.000
    H537     H        0.12280    0.28630    0.40560    1.000
    C834     C        0.13305    0.04710    0.73490    1.000
    C835     C        0.10529    0.30680    0.47990    1.000
    C836     C        0.10189    0.18830    0.86970    1.000
    H538     H        0.09830    0.21690    0.88160    1.000
    C837     C        0.09662    0.17560    0.82760    1.000
    C838     C        0.97134    0.26640    0.52900    1.000
    H539     H        0.96560    0.28310    0.50560    1.000
    C839     C        0.96853    0.29780    0.68600    1.000
    H540     H        0.97300    0.32450    0.67180    1.000
    C840     C        0.08532    0.20970    0.79950    1.000
    C841     C        0.06401    0.33330    0.69810    1.000
    C842     C        0.10168    0.13820    0.80910    1.000
    H541     H        0.09850    0.13100    0.77880    1.000
    C843     C        0.92839    0.35010    0.45260    1.000
    H542     H        0.93480    0.32220    0.45130    1.000
    C844     C        0.08643    0.12200    0.63090    1.000
    H543     H        0.08120    0.09340    0.63790    1.000
    C845     C        0.92013    0.50940    0.33620    1.000
    C846     C        0.92454    0.23130    0.70300    1.000
    C847     C        0.99862    0.23510    0.56030    1.000
    C848     C        0.90867    0.39740    0.48900    1.000
    H544     H        0.90070    0.40280    0.51340    1.000
    C849     C        0.11975    0.47740    0.56900    1.000
    C850     C        0.95545    0.22120    0.73210    1.000
    H545     H        0.95100    0.19740    0.75060    1.000
    C851     C        0.94182    0.26010    0.56390    1.000
    C852     C        0.09662    0.42430    0.61800    1.000
    C853     C        0.13497    0.39340    0.39300    1.000
    C854     C        0.06496    0.27000    0.74900    1.000
    C855     C        0.08824    0.21810    0.75490    1.000
    H546     H        0.09780    0.20260    0.74070    1.000
    C856     C        0.92088    0.42330    0.41990    1.000
    C857     C        0.99998    0.27790    0.71180    1.000
    C858     C        0.91038    0.42830    0.45770    1.000
    H547     H        0.90400    0.45600    0.46120    1.000
    C859     C        0.11593    0.33520    0.45110    1.000
    C860     C        0.03629    0.29390    0.71810    1.000
    C861     C        0.93014    0.38360    0.41750    1.000
    H548     H        0.93780    0.37790    0.39260    1.000
    C862     C        0.10782    0.17920    0.63760    1.000
    H549     H        0.11860    0.19070    0.65020    1.000
    C863     C        0.92234    0.45180    0.38290    1.000
    C864     C        0.08434    0.39330    0.64660    1.000
    C865     C        0.06195    0.26310    0.79080    1.000
    H550     H        0.05210    0.27890    0.80340    1.000
    C866     C        0.07906    0.24500    0.73100    1.000
    H551     H        0.08190    0.24830    0.69990    1.000
    C867     C        0.02661    0.22800    0.60080    1.000
    H552     H        0.02030    0.22700    0.62860    1.000
    C868     C        0.08991    0.32210    0.50030    1.000
    H553     H        0.08590    0.35210    0.49440    1.000
    C869     C        0.97381    0.23110    0.73090    1.000
    H554     H        0.98190    0.21180    0.74650    1.000
    C870     C        0.09935    0.23070    0.51030    1.000
    H555     H        0.10200    0.19910    0.51180    1.000
    C871     C        0.10897    0.25920    0.48680    1.000
    H556     H        0.11940    0.24730    0.47280    1.000
    C872     C        0.89530    0.55560    0.30350    1.000
    H557     H        0.88620    0.53650    0.31580    1.000
    C873     C        0.02763    0.22870    0.52190    1.000
    H558     H        0.02150    0.22830    0.49370    1.000
    C874     C        0.11203    0.10860    0.83480    1.000
    H559     H        0.11500    0.07950    0.82300    1.000
    C875     C        0.07113    0.23600    0.81910    1.000
    H560     H        0.06840    0.23440    0.85040    1.000
    C876     C        0.10238    0.13300    0.65040    1.000
    C877     C        0.01779    0.23200    0.56380    1.000
    C878     C        0.01150    0.24220    0.71940    1.000
    H561     H        0.00700    0.21220    0.72250    1.000
    C879     C        0.92440    0.58310    0.29600    1.000
    H562     H        0.93680    0.57670    0.29920    1.000
    C880     C        0.11494    0.42860    0.63050    1.000
    H563     H        0.11970    0.41290    0.65590    1.000
    C881     C        0.12900    0.08670    0.90160    1.000
    C882     C        0.07802    0.35740    0.71790    1.000
    H564     H        0.08060    0.35300    0.74910    1.000
    C883     C        0.89140    0.59530    0.27480    1.000
    H565     H        0.88050    0.59470    0.25830    1.000
    C884     C        0.11777    0.12020    0.87490    1.000
    C885     C        0.92080    0.62600    0.27710    1.000
    H566     H        0.92960    0.64790    0.27000    1.000
    C886     C        0.11311    0.10560    0.67950    1.000
    C887     C        0.00603    0.32060    0.70410    1.000
    H567     H        0.99800    0.34470    0.69750    1.000
    C888     C        0.10146    0.47140    0.55650    1.000
    H568     H        0.09680    0.48670    0.53080    1.000
    C889     C        0.99042    0.25790    0.52790    1.000
    H569     H        0.99720    0.26910    0.50320    1.000
    C890     C        0.94461    0.24600    0.70680    1.000
    C891     C        0.04579    0.22480    0.60140    1.000
    H570     H        0.05220    0.22410    0.62920    1.000
    C892     C        0.08801    0.38650    0.69380    1.000
    H571     H        0.09750    0.40260    0.70790    1.000
    C893     C        0.04588    0.22610    0.52340    1.000
    H572     H        0.05250    0.22660    0.49600    1.000
    C894     C        0.12963    0.50740    0.54080    1.000
    C895     C        0.02560    0.32840    0.70630    1.000
    H573     H        0.03040    0.35750    0.69950    1.000
    C896     C        0.11921    0.38130    0.46110    1.000
    H574     H        0.11500    0.39380    0.48870    1.000
    C897     C        0.09055    0.44320    0.58210    1.000
    H575     H        0.07860    0.43780    0.57290    1.000
    C898     C        0.12529    0.45580    0.60460    1.000
    H576     H        0.13740    0.45930    0.61300    1.000
    C899     C        0.02972    0.25000    0.72260    1.000
    H577     H        0.03760    0.22530    0.72780    1.000
    C900     C        0.98785    0.21790    0.59580    1.000
    H578     H        0.99340    0.20070    0.61910    1.000
    N73      N        0.91292    0.49230    0.37540    1.000
    N74      N        0.91744    0.35950    0.48770    1.000
    N75      N        0.93306    0.44770    0.34750    1.000
    N76      N        0.90007    0.51060    0.40240    1.000
    H579     H        0.89530    0.53700    0.39540    1.000
    H580     H        0.89660    0.49600    0.42680    1.000
    N77      N        0.90180    0.63270    0.26960    1.000
    N78      N        0.93198    0.48130    0.31840    1.000
    N79      N        0.07407    0.21690    0.56020    1.000
    N80      N        0.05481    0.30070    0.72290    1.000
    O109     O        0.12575    0.52680    0.50710    1.000
    O110     O        0.14506    0.97630    0.75500    1.000
    O111     O        0.15185    0.03700    0.79780    1.000
    O112     O        0.91481    0.25460    0.67700    1.000
    O113     O        0.14213    0.46330    0.36330    1.000
    O114     O        0.92038    0.20150    0.72980    1.000
    O115     O        0.15529    0.40230    0.33350    1.000
    O116     O        0.13272    0.04860    0.88650    1.000
    O117     O        0.13400    0.09930    0.94080    1.000
    O118     O        0.93380    0.24560    0.59690    1.000
    O119     O        0.14745    0.51540    0.55710    1.000
    O120     O        0.93629    0.28280    0.53440    1.000
    Cu28     Cu       0.91306    0.30933    0.53400    1.000
    Cu29     Cu       0.89554    0.18639    0.73610    1.000
    Cu30     Cu       0.90700    0.22832    0.61606    1.000
    C901     C        0.57028    0.87290    0.62830    1.000
    H581     H        0.56690    0.87970    0.59800    1.000
    C902     C        0.63477    0.59240    0.73590    1.000
    H582     H        0.64280    0.60480    0.75750    1.000
    C903     C        0.56060    0.84200    0.65300    1.000
    H583     H        0.55120    0.82590    0.63860    1.000
    C904     C        0.58008    0.79400    0.52970    1.000
    H584     H        0.57040    0.80700    0.54610    1.000
    C905     C        0.62836    0.90830    0.43140    1.000
    H585     H        0.63000    0.93950    0.43890    1.000
    C906     C        0.63400    0.84570    0.38450    1.000
    H586     H        0.64020    0.83300    0.35940    1.000
    C907     C        0.58301    0.68990    0.58930    1.000
    C908     C        0.64422    0.51660    0.76500    1.000
    C909     C        0.62044    0.53330    0.70840    1.000
    H587     H        0.61760    0.50170    0.70950    1.000
    C910     C        0.58364    0.75120    0.53520    1.000
    C911     C        0.55426    0.72300    0.56180    1.000
    C912     C        0.64463    0.92150    0.36250    1.000
    C913     C        0.57766    0.65030    0.60190    1.000
    H588     H        0.56670    0.63990    0.58990    1.000
    C914     C        0.44951    0.78590    0.68620    1.000
    H589     H        0.44090    0.80520    0.67260    1.000
    C915     C        0.41330    0.04860    0.31100    1.000
    C916     C        0.46207    0.74990    0.56380    1.000
    C917     C        0.46984    0.72490    0.59820    1.000
    H590     H        0.46300    0.71310    0.62250    1.000
    C918     C        0.61283    0.65890    0.89580    1.000
    H591     H        0.61640    0.66590    0.92580    1.000
    C919     C        0.59895    0.70570    0.61020    1.000
    H592     H        0.60310    0.73570    0.60420    1.000
    C920     C        0.62564    0.62310    0.70790    1.000
    H593     H        0.62810    0.65480    0.70870    1.000
    C921     C        0.61103    0.55830    0.67980    1.000
    H594     H        0.60290    0.54420    0.65960    1.000
    C922     C        0.47985    0.76580    0.70890    1.000
    C923     C        0.62404    0.81770    0.41270    1.000
    H595     H        0.62280    0.78630    0.40560    1.000
    C924     C        0.63305    0.54710    0.73490    1.000
    C925     C        0.60529    0.80680    0.47990    1.000
    C926     C        0.60189    0.68830    0.86970    1.000
    H596     H        0.59830    0.71690    0.88160    1.000
    C927     C        0.59662    0.67560    0.82760    1.000
    C928     C        0.47134    0.76640    0.52900    1.000
    H597     H        0.46560    0.78310    0.50560    1.000
    C929     C        0.46853    0.79780    0.68600    1.000
    H598     H        0.47300    0.82450    0.67180    1.000
    C930     C        0.58532    0.70970    0.79950    1.000
    C931     C        0.56401    0.83330    0.69810    1.000
    C932     C        0.60168    0.63820    0.80910    1.000
    H599     H        0.59850    0.63100    0.77880    1.000
    C933     C        0.42839    0.85010    0.45260    1.000
    H600     H        0.43480    0.82220    0.45130    1.000
    C934     C        0.58643    0.62200    0.63090    1.000
    H601     H        0.58120    0.59340    0.63790    1.000
    C935     C        0.42013    0.00940    0.33620    1.000
    C936     C        0.42454    0.73130    0.70300    1.000
    C937     C        0.49862    0.73510    0.56030    1.000
    C938     C        0.40867    0.89740    0.48900    1.000
    H602     H        0.40070    0.90280    0.51340    1.000
    C939     C        0.61975    0.97740    0.56900    1.000
    C940     C        0.45545    0.72120    0.73210    1.000
    H603     H        0.45100    0.69740    0.75060    1.000
    C941     C        0.44182    0.76010    0.56390    1.000
    C942     C        0.59662    0.92430    0.61800    1.000
    C943     C        0.63497    0.89340    0.39300    1.000
    C944     C        0.56496    0.77000    0.74900    1.000
    C945     C        0.58824    0.71810    0.75490    1.000
    H604     H        0.59780    0.70260    0.74070    1.000
    C946     C        0.42088    0.92330    0.41990    1.000
    C947     C        0.49998    0.77790    0.71180    1.000
    C948     C        0.41038    0.92830    0.45770    1.000
    H605     H        0.40400    0.95600    0.46120    1.000
    C949     C        0.61593    0.83520    0.45110    1.000
    C950     C        0.53629    0.79390    0.71810    1.000
    C951     C        0.43014    0.88360    0.41750    1.000
    H606     H        0.43780    0.87790    0.39260    1.000
    C952     C        0.60782    0.67920    0.63760    1.000
    H607     H        0.61860    0.69070    0.65020    1.000
    C953     C        0.42234    0.95180    0.38290    1.000
    C954     C        0.58434    0.89330    0.64660    1.000
    C955     C        0.56195    0.76310    0.79080    1.000
    H608     H        0.55210    0.77890    0.80340    1.000
    C956     C        0.57906    0.74500    0.73100    1.000
    H609     H        0.58190    0.74830    0.69990    1.000
    C957     C        0.52661    0.72800    0.60080    1.000
    H610     H        0.52030    0.72700    0.62860    1.000
    C958     C        0.58991    0.82210    0.50030    1.000
    H611     H        0.58590    0.85210    0.49440    1.000
    C959     C        0.47381    0.73110    0.73090    1.000
    H612     H        0.48190    0.71180    0.74650    1.000
    C960     C        0.59935    0.73070    0.51030    1.000
    H613     H        0.60200    0.69910    0.51180    1.000
    C961     C        0.60897    0.75920    0.48680    1.000
    H614     H        0.61940    0.74730    0.47280    1.000
    C962     C        0.39530    0.05560    0.30350    1.000
    H615     H        0.38620    0.03650    0.31580    1.000
    C963     C        0.52763    0.72870    0.52190    1.000
    H616     H        0.52150    0.72830    0.49370    1.000
    C964     C        0.61203    0.60860    0.83480    1.000
    H617     H        0.61500    0.57950    0.82300    1.000
    C965     C        0.57113    0.73600    0.81910    1.000
    H618     H        0.56840    0.73440    0.85040    1.000
    C966     C        0.60238    0.63300    0.65040    1.000
    C967     C        0.51779    0.73200    0.56380    1.000
    C968     C        0.51150    0.74220    0.71940    1.000
    H619     H        0.50700    0.71220    0.72250    1.000
    C969     C        0.42440    0.08310    0.29600    1.000
    H620     H        0.43680    0.07670    0.29920    1.000
    C970     C        0.61494    0.92860    0.63050    1.000
    H621     H        0.61970    0.91290    0.65590    1.000
    C971     C        0.62900    0.58670    0.90160    1.000
    C972     C        0.57802    0.85740    0.71790    1.000
    H622     H        0.58060    0.85300    0.74910    1.000
    C973     C        0.39140    0.09530    0.27480    1.000
    H623     H        0.38050    0.09470    0.25830    1.000
    C974     C        0.61777    0.62020    0.87490    1.000
    C975     C        0.42080    0.12600    0.27710    1.000
    H624     H        0.42960    0.14790    0.27000    1.000
    C976     C        0.61311    0.60560    0.67950    1.000
    C977     C        0.50603    0.82060    0.70410    1.000
    H625     H        0.49800    0.84470    0.69750    1.000
    C978     C        0.60146    0.97140    0.55650    1.000
    H626     H        0.59680    0.98670    0.53080    1.000
    C979     C        0.49042    0.75790    0.52790    1.000
    H627     H        0.49720    0.76910    0.50320    1.000
    C980     C        0.44461    0.74600    0.70680    1.000
    C981     C        0.54579    0.72480    0.60140    1.000
    H628     H        0.55220    0.72410    0.62920    1.000
    C982     C        0.58801    0.88650    0.69380    1.000
    H629     H        0.59750    0.90260    0.70790    1.000
    C983     C        0.54588    0.72610    0.52340    1.000
    H630     H        0.55250    0.72660    0.49600    1.000
    C984     C        0.62963    0.00740    0.54080    1.000
    C985     C        0.52560    0.82840    0.70630    1.000
    H631     H        0.53040    0.85750    0.69950    1.000
    C986     C        0.61921    0.88130    0.46110    1.000
    H632     H        0.61500    0.89380    0.48870    1.000
    C987     C        0.59055    0.94320    0.58210    1.000
    H633     H        0.57860    0.93780    0.57290    1.000
    C988     C        0.62529    0.95580    0.60460    1.000
    H634     H        0.63740    0.95930    0.61300    1.000
    C989     C        0.52972    0.75000    0.72260    1.000
    H635     H        0.53760    0.72530    0.72780    1.000
    C990     C        0.48785    0.71790    0.59580    1.000
    H636     H        0.49340    0.70070    0.61910    1.000
    N81      N        0.41292    0.99230    0.37540    1.000
    N82      N        0.41744    0.85950    0.48770    1.000
    N83      N        0.43306    0.94770    0.34750    1.000
    N84      N        0.40007    0.01060    0.40240    1.000
    H637     H        0.39530    0.03700    0.39540    1.000
    H638     H        0.39660    0.99600    0.42680    1.000
    N85      N        0.40180    0.13270    0.26960    1.000
    N86      N        0.43198    0.98130    0.31840    1.000
    N87      N        0.57407    0.71690    0.56020    1.000
    N88      N        0.55481    0.80070    0.72290    1.000
    O121     O        0.62575    0.02680    0.50710    1.000
    O122     O        0.64506    0.47630    0.75500    1.000
    O123     O        0.65185    0.53700    0.79780    1.000
    O124     O        0.41481    0.75460    0.67700    1.000
    O125     O        0.64213    0.96330    0.36330    1.000
    O126     O        0.42038    0.70150    0.72980    1.000
    O127     O        0.65529    0.90230    0.33350    1.000
    O128     O        0.63272    0.54860    0.88650    1.000
    O129     O        0.63400    0.59930    0.94080    1.000
    O130     O        0.43380    0.74560    0.59690    1.000
    O131     O        0.64745    0.01540    0.55710    1.000
    O132     O        0.43629    0.78280    0.53440    1.000
    Cu31     Cu       0.41305    0.80933    0.53400    1.000
    Cu32     Cu       0.39554    0.68639    0.73610    1.000
    Cu33     Cu       0.40700    0.72832    0.61606    1.000
    C991     C        0.57028    0.37290    0.12830    1.000
    H639     H        0.56690    0.37970    0.09800    1.000
    C992     C        0.63477    0.09240    0.23590    1.000
    H640     H        0.64280    0.10480    0.25750    1.000
    C993     C        0.56060    0.34200    0.15300    1.000
    H641     H        0.55120    0.32590    0.13860    1.000
    C994     C        0.58008    0.29400    0.02970    1.000
    H642     H        0.57040    0.30700    0.04610    1.000
    C995     C        0.62836    0.40830    0.93140    1.000
    H643     H        0.63000    0.43950    0.93890    1.000
    C996     C        0.63400    0.34570    0.88450    1.000
    H644     H        0.64020    0.33300    0.85940    1.000
    C997     C        0.58301    0.18990    0.08930    1.000
    C998     C        0.64422    0.01660    0.26500    1.000
    C999     C        0.62044    0.03330    0.20840    1.000
    H645     H        0.61760    0.00170    0.20950    1.000
    C1000    C        0.58364    0.25120    0.03520    1.000
    C1001    C        0.55426    0.22300    0.06180    1.000
    C1002    C        0.64463    0.42150    0.86250    1.000
    C1003    C        0.57766    0.15030    0.10190    1.000
    H646     H        0.56670    0.13990    0.08990    1.000
    C1004    C        0.44951    0.28590    0.18620    1.000
    H647     H        0.44090    0.30520    0.17260    1.000
    C1005    C        0.41330    0.54860    0.81100    1.000
    C1006    C        0.46207    0.24990    0.06380    1.000
    C1007    C        0.46984    0.22490    0.09820    1.000
    H648     H        0.46300    0.21310    0.12250    1.000
    C1008    C        0.61283    0.15890    0.39580    1.000
    H649     H        0.61640    0.16590    0.42580    1.000
    C1009    C        0.59895    0.20570    0.11020    1.000
    H650     H        0.60310    0.23570    0.10420    1.000
    C1010    C        0.62564    0.12310    0.20790    1.000
    H651     H        0.62810    0.15480    0.20870    1.000
    C1011    C        0.61103    0.05830    0.17980    1.000
    H652     H        0.60290    0.04420    0.15960    1.000
    C1012    C        0.47985    0.26580    0.20890    1.000
    C1013    C        0.62404    0.31770    0.91270    1.000
    H653     H        0.62280    0.28630    0.90560    1.000
    C1014    C        0.63305    0.04710    0.23490    1.000
    C1015    C        0.60529    0.30680    0.97990    1.000
    C1016    C        0.60189    0.18830    0.36970    1.000
    H654     H        0.59830    0.21690    0.38160    1.000
    C1017    C        0.59662    0.17560    0.32760    1.000
    C1018    C        0.47134    0.26640    0.02900    1.000
    H655     H        0.46560    0.28310    0.00560    1.000
    C1019    C        0.46853    0.29780    0.18600    1.000
    H656     H        0.47300    0.32450    0.17180    1.000
    C1020    C        0.58532    0.20970    0.29950    1.000
    C1021    C        0.56401    0.33330    0.19810    1.000
    C1022    C        0.60168    0.13820    0.30910    1.000
    H657     H        0.59850    0.13100    0.27880    1.000
    C1023    C        0.42839    0.35010    0.95260    1.000
    H658     H        0.43480    0.32220    0.95130    1.000
    C1024    C        0.58643    0.12200    0.13090    1.000
    H659     H        0.58120    0.09340    0.13790    1.000
    C1025    C        0.42013    0.50940    0.83620    1.000
    C1026    C        0.42454    0.23130    0.20300    1.000
    C1027    C        0.49862    0.23510    0.06030    1.000
    C1028    C        0.40867    0.39740    0.98900    1.000
    H660     H        0.40070    0.40280    0.01340    1.000
    C1029    C        0.61975    0.47740    0.06900    1.000
    C1030    C        0.45545    0.22120    0.23210    1.000
    H661     H        0.45100    0.19740    0.25060    1.000
    C1031    C        0.44182    0.26010    0.06390    1.000
    C1032    C        0.59662    0.42430    0.11800    1.000
    C1033    C        0.63497    0.39340    0.89300    1.000
    C1034    C        0.56496    0.27000    0.24900    1.000
    C1035    C        0.58824    0.21810    0.25490    1.000
    H662     H        0.59780    0.20260    0.24070    1.000
    C1036    C        0.42088    0.42330    0.91990    1.000
    C1037    C        0.49998    0.27790    0.21180    1.000
    C1038    C        0.41038    0.42830    0.95770    1.000
    H663     H        0.40400    0.45600    0.96120    1.000
    C1039    C        0.61593    0.33520    0.95110    1.000
    C1040    C        0.53629    0.29390    0.21810    1.000
    C1041    C        0.43014    0.38360    0.91750    1.000
    H664     H        0.43780    0.37790    0.89260    1.000
    C1042    C        0.60782    0.17920    0.13760    1.000
    H665     H        0.61860    0.19070    0.15020    1.000
    C1043    C        0.42234    0.45180    0.88290    1.000
    C1044    C        0.58434    0.39330    0.14660    1.000
    C1045    C        0.56195    0.26310    0.29080    1.000
    H666     H        0.55210    0.27890    0.30340    1.000
    C1046    C        0.57906    0.24500    0.23100    1.000
    H667     H        0.58190    0.24830    0.19990    1.000
    C1047    C        0.52661    0.22800    0.10080    1.000
    H668     H        0.52030    0.22700    0.12860    1.000
    C1048    C        0.58991    0.32210    0.00030    1.000
    H669     H        0.58590    0.35210    0.99440    1.000
    C1049    C        0.47381    0.23110    0.23090    1.000
    H670     H        0.48190    0.21180    0.24650    1.000
    C1050    C        0.59935    0.23070    0.01030    1.000
    H671     H        0.60200    0.19910    0.01180    1.000
    C1051    C        0.60897    0.25920    0.98680    1.000
    H672     H        0.61940    0.24730    0.97280    1.000
    C1052    C        0.39530    0.55560    0.80350    1.000
    H673     H        0.38620    0.53650    0.81580    1.000
    C1053    C        0.52763    0.22870    0.02190    1.000
    H674     H        0.52150    0.22830    0.99370    1.000
    C1054    C        0.61203    0.10860    0.33480    1.000
    H675     H        0.61500    0.07950    0.32300    1.000
    C1055    C        0.57113    0.23600    0.31910    1.000
    H676     H        0.56840    0.23440    0.35040    1.000
    C1056    C        0.60238    0.13300    0.15040    1.000
    C1057    C        0.51779    0.23200    0.06380    1.000
    C1058    C        0.51150    0.24220    0.21940    1.000
    H677     H        0.50700    0.21220    0.22250    1.000
    C1059    C        0.42440    0.58310    0.79600    1.000
    H678     H        0.43680    0.57670    0.79920    1.000
    C1060    C        0.61494    0.42860    0.13050    1.000
    H679     H        0.61970    0.41290    0.15590    1.000
    C1061    C        0.62900    0.08670    0.40160    1.000
    C1062    C        0.57802    0.35740    0.21790    1.000
    H680     H        0.58060    0.35300    0.24910    1.000
    C1063    C        0.39140    0.59530    0.77480    1.000
    H681     H        0.38050    0.59470    0.75830    1.000
    C1064    C        0.61777    0.12020    0.37490    1.000
    C1065    C        0.42080    0.62600    0.77710    1.000
    H682     H        0.42960    0.64790    0.77000    1.000
    C1066    C        0.61311    0.10560    0.17950    1.000
    C1067    C        0.50603    0.32060    0.20410    1.000
    H683     H        0.49800    0.34470    0.19750    1.000
    C1068    C        0.60146    0.47140    0.05650    1.000
    H684     H        0.59680    0.48670    0.03080    1.000
    C1069    C        0.49042    0.25790    0.02790    1.000
    H685     H        0.49720    0.26910    0.00320    1.000
    C1070    C        0.44461    0.24600    0.20680    1.000
    C1071    C        0.54579    0.22480    0.10140    1.000
    H686     H        0.55220    0.22410    0.12920    1.000
    C1072    C        0.58801    0.38650    0.19380    1.000
    H687     H        0.59750    0.40260    0.20790    1.000
    C1073    C        0.54588    0.22610    0.02340    1.000
    H688     H        0.55250    0.22660    0.99600    1.000
    C1074    C        0.62963    0.50740    0.04080    1.000
    C1075    C        0.52560    0.32840    0.20630    1.000
    H689     H        0.53040    0.35750    0.19950    1.000
    C1076    C        0.61921    0.38130    0.96110    1.000
    H690     H        0.61500    0.39380    0.98870    1.000
    C1077    C        0.59055    0.44320    0.08210    1.000
    H691     H        0.57860    0.43780    0.07290    1.000
    C1078    C        0.62529    0.45580    0.10460    1.000
    H692     H        0.63740    0.45930    0.11300    1.000
    C1079    C        0.52972    0.25000    0.22260    1.000
    H693     H        0.53760    0.22530    0.22780    1.000
    C1080    C        0.48785    0.21790    0.09580    1.000
    H694     H        0.49340    0.20070    0.11910    1.000
    N89      N        0.41292    0.49230    0.87540    1.000
    N90      N        0.41744    0.35950    0.98770    1.000
    N91      N        0.43306    0.44770    0.84750    1.000
    N92      N        0.40007    0.51060    0.90240    1.000
    H695     H        0.39530    0.53700    0.89540    1.000
    H696     H        0.39660    0.49600    0.92680    1.000
    N93      N        0.40180    0.63270    0.76960    1.000
    N94      N        0.43198    0.48130    0.81840    1.000
    N95      N        0.57407    0.21690    0.06020    1.000
    N96      N        0.55481    0.30070    0.22290    1.000
    O133     O        0.62575    0.52680    0.00710    1.000
    O134     O        0.64506    0.97630    0.25500    1.000
    O135     O        0.65185    0.03700    0.29780    1.000
    O136     O        0.41481    0.25460    0.17700    1.000
    O137     O        0.64213    0.46330    0.86330    1.000
    O138     O        0.42038    0.20150    0.22980    1.000
    O139     O        0.65529    0.40230    0.83350    1.000
    O140     O        0.63272    0.04860    0.38650    1.000
    O141     O        0.63400    0.09930    0.44080    1.000
    O142     O        0.43380    0.24560    0.09690    1.000
    O143     O        0.64745    0.51540    0.05710    1.000
    O144     O        0.43629    0.28280    0.03440    1.000
    Cu34     Cu       0.41305    0.30933    0.03400    1.000
    Cu35     Cu       0.39554    0.18639    0.23610    1.000
    Cu36     Cu       0.40700    0.22832    0.11606    1.000
    C1081    C        0.32028    0.37710    0.37830    1.000
    H697     H        0.31690    0.37030    0.34800    1.000
    C1082    C        0.38477    0.65760    0.48590    1.000
    H698     H        0.39280    0.64520    0.50750    1.000
    C1083    C        0.31060    0.40800    0.40300    1.000
    H699     H        0.30120    0.42410    0.38860    1.000
    C1084    C        0.33008    0.45600    0.27970    1.000
    H700     H        0.32040    0.44300    0.29610    1.000
    C1085    C        0.37836    0.34170    0.18140    1.000
    H701     H        0.38000    0.31050    0.18890    1.000
    C1086    C        0.38400    0.40430    0.13450    1.000
    H702     H        0.39020    0.41700    0.10940    1.000
    C1087    C        0.33301    0.56010    0.33930    1.000
    C1088    C        0.39422    0.73340    0.51500    1.000
    C1089    C        0.37044    0.71670    0.45840    1.000
    H703     H        0.36760    0.74830    0.45950    1.000
    C1090    C        0.33364    0.49880    0.28520    1.000
    C1091    C        0.30426    0.52700    0.31180    1.000
    C1092    C        0.39463    0.32850    0.11250    1.000
    C1093    C        0.32766    0.59970    0.35190    1.000
    H704     H        0.31670    0.61010    0.33990    1.000
    C1094    C        0.19951    0.46410    0.43620    1.000
    H705     H        0.19090    0.44480    0.42260    1.000
    C1095    C        0.16330    0.20140    0.06100    1.000
    C1096    C        0.21207    0.50010    0.31380    1.000
    C1097    C        0.21984    0.52510    0.34820    1.000
    H706     H        0.21300    0.53690    0.37250    1.000
    C1098    C        0.36283    0.59110    0.64580    1.000
    H707     H        0.36640    0.58410    0.67580    1.000
    C1099    C        0.34895    0.54430    0.36020    1.000
    H708     H        0.35310    0.51430    0.35420    1.000
    C1100    C        0.37564    0.62690    0.45790    1.000
    H709     H        0.37810    0.59520    0.45870    1.000
    C1101    C        0.36103    0.69170    0.42980    1.000
    H710     H        0.35290    0.70580    0.40960    1.000
    C1102    C        0.22985    0.48420    0.45890    1.000
    C1103    C        0.37404    0.43230    0.16270    1.000
    H711     H        0.37280    0.46370    0.15560    1.000
    C1104    C        0.38305    0.70290    0.48490    1.000
    C1105    C        0.35529    0.44320    0.22990    1.000
    C1106    C        0.35189    0.56170    0.61970    1.000
    H712     H        0.34830    0.53310    0.63160    1.000
    C1107    C        0.34662    0.57440    0.57760    1.000
    C1108    C        0.22134    0.48360    0.27900    1.000
    H713     H        0.21560    0.46690    0.25560    1.000
    C1109    C        0.21853    0.45220    0.43600    1.000
    H714     H        0.22300    0.42550    0.42180    1.000
    C1110    C        0.33532    0.54030    0.54950    1.000
    C1111    C        0.31401    0.41670    0.44810    1.000
    C1112    C        0.35168    0.61180    0.55910    1.000
    H715     H        0.34850    0.61900    0.52880    1.000
    C1113    C        0.17839    0.39990    0.20260    1.000
    H716     H        0.18480    0.42780    0.20130    1.000
    C1114    C        0.33643    0.62800    0.38090    1.000
    H717     H        0.33120    0.65660    0.38790    1.000
    C1115    C        0.17013    0.24060    0.08620    1.000
    C1116    C        0.17454    0.51870    0.45300    1.000
    C1117    C        0.24862    0.51490    0.31030    1.000
    C1118    C        0.15867    0.35260    0.23900    1.000
    H718     H        0.15070    0.34720    0.26340    1.000
    C1119    C        0.36975    0.27260    0.31900    1.000
    C1120    C        0.20545    0.52880    0.48210    1.000
    H719     H        0.20100    0.55260    0.50060    1.000
    C1121    C        0.19182    0.48990    0.31390    1.000
    C1122    C        0.34662    0.32570    0.36800    1.000
    C1123    C        0.38497    0.35660    0.14300    1.000
    C1124    C        0.31496    0.48000    0.49900    1.000
    C1125    C        0.33824    0.53190    0.50490    1.000
    H720     H        0.34780    0.54740    0.49070    1.000
    C1126    C        0.17088    0.32670    0.16990    1.000
    C1127    C        0.24998    0.47210    0.46180    1.000
    C1128    C        0.16038    0.32170    0.20770    1.000
    H721     H        0.15400    0.29400    0.21120    1.000
    C1129    C        0.36593    0.41480    0.20110    1.000
    C1130    C        0.28629    0.45610    0.46810    1.000
    C1131    C        0.18014    0.36640    0.16750    1.000
    H722     H        0.18780    0.37210    0.14260    1.000
    C1132    C        0.35782    0.57080    0.38760    1.000
    H723     H        0.36860    0.55930    0.40020    1.000
    C1133    C        0.17234    0.29820    0.13290    1.000
    C1134    C        0.33434    0.35670    0.39660    1.000
    C1135    C        0.31195    0.48690    0.54080    1.000
    H724     H        0.30210    0.47110    0.55340    1.000
    C1136    C        0.32906    0.50500    0.48100    1.000
    H725     H        0.33190    0.50170    0.44990    1.000
    C1137    C        0.27661    0.52200    0.35080    1.000
    H726     H        0.27030    0.52300    0.37860    1.000
    C1138    C        0.33991    0.42790    0.25030    1.000
    H727     H        0.33590    0.39790    0.24440    1.000
    C1139    C        0.22381    0.51890    0.48090    1.000
    H728     H        0.23190    0.53820    0.49650    1.000
    C1140    C        0.34935    0.51930    0.26030    1.000
    H729     H        0.35200    0.55090    0.26180    1.000
    C1141    C        0.35897    0.49080    0.23680    1.000
    H730     H        0.36940    0.50270    0.22280    1.000
    C1142    C        0.14530    0.19440    0.05350    1.000
    H731     H        0.13620    0.21350    0.06580    1.000
    C1143    C        0.27763    0.52130    0.27190    1.000
    H732     H        0.27150    0.52170    0.24370    1.000
    C1144    C        0.36203    0.64140    0.58480    1.000
    H733     H        0.36500    0.67050    0.57300    1.000
    C1145    C        0.32113    0.51400    0.56910    1.000
    H734     H        0.31840    0.51560    0.60040    1.000
    C1146    C        0.35238    0.61700    0.40040    1.000
    C1147    C        0.26779    0.51800    0.31380    1.000
    C1148    C        0.26150    0.50780    0.46940    1.000
    H735     H        0.25700    0.53780    0.47250    1.000
    C1149    C        0.17440    0.16690    0.04600    1.000
    H736     H        0.18680    0.17330    0.04920    1.000
    C1150    C        0.36494    0.32140    0.38050    1.000
    H737     H        0.36970    0.33710    0.40590    1.000
    C1151    C        0.37900    0.66330    0.65160    1.000
    C1152    C        0.32802    0.39260    0.46790    1.000
    H738     H        0.33060    0.39700    0.49910    1.000
    C1153    C        0.14140    0.15470    0.02480    1.000
    H739     H        0.13050    0.15530    0.00830    1.000
    C1154    C        0.36777    0.62980    0.62490    1.000
    C1155    C        0.17080    0.12400    0.02710    1.000
    H740     H        0.17960    0.10210    0.02000    1.000
    C1156    C        0.36311    0.64440    0.42950    1.000
    C1157    C        0.25603    0.42940    0.45410    1.000
    H741     H        0.24800    0.40530    0.44750    1.000
    C1158    C        0.35146    0.27860    0.30650    1.000
    H742     H        0.34680    0.26330    0.28080    1.000
    C1159    C        0.24042    0.49210    0.27790    1.000
    H743     H        0.24720    0.48090    0.25320    1.000
    C1160    C        0.19461    0.50400    0.45680    1.000
    C1161    C        0.29579    0.52520    0.35140    1.000
    H744     H        0.30220    0.52590    0.37920    1.000
    C1162    C        0.33801    0.36350    0.44380    1.000
    H745     H        0.34750    0.34740    0.45790    1.000
    C1163    C        0.29588    0.52390    0.27340    1.000
    H746     H        0.30250    0.52340    0.24600    1.000
    C1164    C        0.37963    0.24260    0.29080    1.000
    C1165    C        0.27560    0.42160    0.45630    1.000
    H747     H        0.28040    0.39250    0.44950    1.000
    C1166    C        0.36921    0.36870    0.21110    1.000
    H748     H        0.36500    0.35620    0.23870    1.000
    C1167    C        0.34055    0.30680    0.33210    1.000
    H749     H        0.32860    0.31220    0.32290    1.000
    C1168    C        0.37529    0.29420    0.35460    1.000
    H750     H        0.38740    0.29070    0.36300    1.000
    C1169    C        0.27972    0.50000    0.47260    1.000
    H751     H        0.28760    0.52470    0.47780    1.000
    C1170    C        0.23785    0.53210    0.34580    1.000
    H752     H        0.24340    0.54930    0.36910    1.000
    N97      N        0.16292    0.25770    0.12540    1.000
    N98      N        0.16744    0.39050    0.23770    1.000
    N99      N        0.18306    0.30230    0.09750    1.000
    N100     N        0.15007    0.23940    0.15240    1.000
    H753     H        0.14530    0.21300    0.14540    1.000
    H754     H        0.14660    0.25400    0.17680    1.000
    N101     N        0.15180    0.11730    0.01960    1.000
    N102     N        0.18198    0.26870    0.06840    1.000
    N103     N        0.32407    0.53310    0.31020    1.000
    N104     N        0.30481    0.44930    0.47290    1.000
    O145     O        0.37575    0.22320    0.25710    1.000
    O146     O        0.39506    0.77370    0.50500    1.000
    O147     O        0.40185    0.71300    0.54780    1.000
    O148     O        0.16481    0.49540    0.42700    1.000
    O149     O        0.39213    0.28670    0.11330    1.000
    O150     O        0.17038    0.54850    0.47980    1.000
    O151     O        0.40529    0.34770    0.08350    1.000
    O152     O        0.38272    0.70140    0.63650    1.000
    O153     O        0.38400    0.65070    0.69080    1.000
    O154     O        0.18380    0.50440    0.34690    1.000
    O155     O        0.39745    0.23460    0.30710    1.000
    O156     O        0.18629    0.46720    0.28440    1.000
    Cu37     Cu       0.16305    0.44067    0.28400    1.000
    Cu38     Cu       0.14554    0.56361    0.48610    1.000
    Cu39     Cu       0.15700    0.52168    0.36606    1.000
    C1171    C        0.32028    0.87710    0.87830    1.000
    H755     H        0.31690    0.87030    0.84800    1.000
    C1172    C        0.38477    0.15760    0.98590    1.000
    H756     H        0.39280    0.14520    0.00750    1.000
    C1173    C        0.31060    0.90800    0.90300    1.000
    H757     H        0.30120    0.92410    0.88860    1.000
    C1174    C        0.33008    0.95600    0.77970    1.000
    H758     H        0.32040    0.94300    0.79610    1.000
    C1175    C        0.37836    0.84170    0.68140    1.000
    H759     H        0.38000    0.81050    0.68890    1.000
    C1176    C        0.38400    0.90430    0.63450    1.000
    H760     H        0.39020    0.91700    0.60940    1.000
    C1177    C        0.33301    0.06010    0.83930    1.000
    C1178    C        0.39422    0.23340    0.01500    1.000
    C1179    C        0.37044    0.21670    0.95840    1.000
    H761     H        0.36760    0.24830    0.95950    1.000
    C1180    C        0.33364    0.99880    0.78520    1.000
    C1181    C        0.30426    0.02700    0.81180    1.000
    C1182    C        0.39463    0.82850    0.61250    1.000
    C1183    C        0.32766    0.09970    0.85190    1.000
    H762     H        0.31670    0.11010    0.83990    1.000
    C1184    C        0.19951    0.96410    0.93620    1.000
    H763     H        0.19090    0.94480    0.92260    1.000
    C1185    C        0.16330    0.70140    0.56100    1.000
    C1186    C        0.21207    0.00010    0.81380    1.000
    C1187    C        0.21984    0.02510    0.84820    1.000
    H764     H        0.21300    0.03690    0.87250    1.000
    C1188    C        0.36283    0.09110    0.14580    1.000
    H765     H        0.36640    0.08410    0.17580    1.000
    C1189    C        0.34895    0.04430    0.86020    1.000
    H766     H        0.35310    0.01430    0.85420    1.000
    C1190    C        0.37564    0.12690    0.95790    1.000
    H767     H        0.37810    0.09520    0.95870    1.000
    C1191    C        0.36103    0.19170    0.92980    1.000
    H768     H        0.35290    0.20580    0.90960    1.000
    C1192    C        0.22985    0.98420    0.95890    1.000
    C1193    C        0.37404    0.93230    0.66270    1.000
    H769     H        0.37280    0.96370    0.65560    1.000
    C1194    C        0.38305    0.20290    0.98490    1.000
    C1195    C        0.35529    0.94320    0.72990    1.000
    C1196    C        0.35189    0.06170    0.11970    1.000
    H770     H        0.34830    0.03310    0.13160    1.000
    C1197    C        0.34662    0.07440    0.07760    1.000
    C1198    C        0.22134    0.98360    0.77900    1.000
    H771     H        0.21560    0.96690    0.75560    1.000
    C1199    C        0.21853    0.95220    0.93600    1.000
    H772     H        0.22300    0.92550    0.92180    1.000
    C1200    C        0.33532    0.04030    0.04950    1.000
    C1201    C        0.31401    0.91670    0.94810    1.000
    C1202    C        0.35168    0.11180    0.05910    1.000
    H773     H        0.34850    0.11900    0.02880    1.000
    C1203    C        0.17839    0.89990    0.70260    1.000
    H774     H        0.18480    0.92780    0.70130    1.000
    C1204    C        0.33643    0.12800    0.88090    1.000
    H775     H        0.33120    0.15660    0.88790    1.000
    C1205    C        0.17013    0.74060    0.58620    1.000
    C1206    C        0.17454    0.01870    0.95300    1.000
    C1207    C        0.24862    0.01490    0.81030    1.000
    C1208    C        0.15867    0.85260    0.73900    1.000
    H776     H        0.15070    0.84720    0.76340    1.000
    C1209    C        0.36975    0.77260    0.81900    1.000
    C1210    C        0.20545    0.02880    0.98210    1.000
    H777     H        0.20100    0.05260    0.00060    1.000
    C1211    C        0.19182    0.98990    0.81390    1.000
    C1212    C        0.34662    0.82570    0.86800    1.000
    C1213    C        0.38497    0.85660    0.64300    1.000
    C1214    C        0.31496    0.98000    0.99900    1.000
    C1215    C        0.33824    0.03190    0.00490    1.000
    H778     H        0.34780    0.04740    0.99070    1.000
    C1216    C        0.17088    0.82670    0.66990    1.000
    C1217    C        0.24998    0.97210    0.96180    1.000
    C1218    C        0.16038    0.82170    0.70770    1.000
    H779     H        0.15400    0.79400    0.71120    1.000
    C1219    C        0.36593    0.91480    0.70110    1.000
    C1220    C        0.28629    0.95610    0.96810    1.000
    C1221    C        0.18014    0.86640    0.66750    1.000
    H780     H        0.18780    0.87210    0.64260    1.000
    C1222    C        0.35782    0.07080    0.88760    1.000
    H781     H        0.36860    0.05930    0.90020    1.000
    C1223    C        0.17234    0.79820    0.63290    1.000
    C1224    C        0.33434    0.85670    0.89660    1.000
    C1225    C        0.31195    0.98690    0.04080    1.000
    H782     H        0.30210    0.97110    0.05340    1.000
    C1226    C        0.32906    0.00500    0.98100    1.000
    H783     H        0.33190    0.00170    0.94990    1.000
    C1227    C        0.27661    0.02200    0.85080    1.000
    H784     H        0.27030    0.02300    0.87860    1.000
    C1228    C        0.33991    0.92790    0.75030    1.000
    H785     H        0.33590    0.89790    0.74440    1.000
    C1229    C        0.22381    0.01890    0.98090    1.000
    H786     H        0.23190    0.03820    0.99650    1.000
    C1230    C        0.34935    0.01930    0.76030    1.000
    H787     H        0.35200    0.05090    0.76180    1.000
    C1231    C        0.35897    0.99080    0.73680    1.000
    H788     H        0.36940    0.00270    0.72280    1.000
    C1232    C        0.14530    0.69440    0.55350    1.000
    H789     H        0.13620    0.71350    0.56580    1.000
    C1233    C        0.27763    0.02130    0.77190    1.000
    H790     H        0.27150    0.02170    0.74370    1.000
    C1234    C        0.36203    0.14140    0.08480    1.000
    H791     H        0.36500    0.17050    0.07300    1.000
    C1235    C        0.32113    0.01400    0.06910    1.000
    H792     H        0.31840    0.01560    0.10040    1.000
    C1236    C        0.35238    0.11700    0.90040    1.000
    C1237    C        0.26779    0.01800    0.81380    1.000
    C1238    C        0.26150    0.00780    0.96940    1.000
    H793     H        0.25700    0.03780    0.97250    1.000
    C1239    C        0.17440    0.66690    0.54600    1.000
    H794     H        0.18680    0.67330    0.54920    1.000
    C1240    C        0.36494    0.82140    0.88050    1.000
    H795     H        0.36970    0.83710    0.90590    1.000
    C1241    C        0.37900    0.16330    0.15160    1.000
    C1242    C        0.32802    0.89260    0.96790    1.000
    H796     H        0.33060    0.89700    0.99910    1.000
    C1243    C        0.14140    0.65470    0.52480    1.000
    H797     H        0.13050    0.65530    0.50830    1.000
    C1244    C        0.36777    0.12980    0.12490    1.000
    C1245    C        0.17080    0.62400    0.52710    1.000
    H798     H        0.17960    0.60210    0.52000    1.000
    C1246    C        0.36311    0.14440    0.92950    1.000
    C1247    C        0.25603    0.92940    0.95410    1.000
    H799     H        0.24800    0.90530    0.94750    1.000
    C1248    C        0.35146    0.77860    0.80650    1.000
    H800     H        0.34680    0.76330    0.78080    1.000
    C1249    C        0.24042    0.99210    0.77790    1.000
    H801     H        0.24720    0.98090    0.75320    1.000
    C1250    C        0.19461    0.00400    0.95680    1.000
    C1251    C        0.29579    0.02520    0.85140    1.000
    H802     H        0.30220    0.02590    0.87920    1.000
    C1252    C        0.33801    0.86350    0.94380    1.000
    H803     H        0.34750    0.84740    0.95790    1.000
    C1253    C        0.29588    0.02390    0.77340    1.000
    H804     H        0.30250    0.02340    0.74600    1.000
    C1254    C        0.37963    0.74260    0.79080    1.000
    C1255    C        0.27560    0.92160    0.95630    1.000
    H805     H        0.28040    0.89250    0.94950    1.000
    C1256    C        0.36921    0.86870    0.71110    1.000
    H806     H        0.36500    0.85620    0.73870    1.000
    C1257    C        0.34055    0.80680    0.83210    1.000
    H807     H        0.32860    0.81220    0.82290    1.000
    C1258    C        0.37529    0.79420    0.85460    1.000
    H808     H        0.38740    0.79070    0.86300    1.000
    C1259    C        0.27972    0.00000    0.97260    1.000
    H809     H        0.28760    0.02470    0.97780    1.000
    C1260    C        0.23785    0.03210    0.84580    1.000
    H810     H        0.24340    0.04930    0.86910    1.000
    N105     N        0.16292    0.75770    0.62540    1.000
    N106     N        0.16744    0.89050    0.73770    1.000
    N107     N        0.18306    0.80230    0.59750    1.000
    N108     N        0.15007    0.73940    0.65240    1.000
    H811     H        0.14530    0.71300    0.64540    1.000
    H812     H        0.14660    0.75400    0.67680    1.000
    N109     N        0.15180    0.61730    0.51960    1.000
    N110     N        0.18198    0.76870    0.56840    1.000
    N111     N        0.32407    0.03310    0.81020    1.000
    N112     N        0.30481    0.94930    0.97290    1.000
    O157     O        0.37575    0.72320    0.75710    1.000
    O158     O        0.39506    0.27370    0.00500    1.000
    O159     O        0.40185    0.21300    0.04780    1.000
    O160     O        0.16481    0.99540    0.92700    1.000
    O161     O        0.39213    0.78670    0.61330    1.000
    O162     O        0.17038    0.04850    0.97980    1.000
    O163     O        0.40529    0.84770    0.58350    1.000
    O164     O        0.38272    0.20140    0.13650    1.000
    O165     O        0.38400    0.15070    0.19080    1.000
    O166     O        0.18380    0.00440    0.84690    1.000
    O167     O        0.39745    0.73460    0.80710    1.000
    O168     O        0.18629    0.96720    0.78440    1.000
    Cu40     Cu       0.16305    0.94067    0.78400    1.000
    Cu41     Cu       0.14554    0.06361    0.98610    1.000
    Cu42     Cu       0.15700    0.02168    0.86606    1.000
    C1261    C        0.82028    0.37710    0.87830    1.000
    H813     H        0.81690    0.37030    0.84800    1.000
    C1262    C        0.88477    0.65760    0.98590    1.000
    H814     H        0.89280    0.64520    0.00750    1.000
    C1263    C        0.81060    0.40800    0.90300    1.000
    H815     H        0.80120    0.42410    0.88860    1.000
    C1264    C        0.83008    0.45600    0.77970    1.000
    H816     H        0.82040    0.44300    0.79610    1.000
    C1265    C        0.87836    0.34170    0.68140    1.000
    H817     H        0.88000    0.31050    0.68890    1.000
    C1266    C        0.88400    0.40430    0.63450    1.000
    H818     H        0.89020    0.41700    0.60940    1.000
    C1267    C        0.83301    0.56010    0.83930    1.000
    C1268    C        0.89422    0.73340    0.01500    1.000
    C1269    C        0.87044    0.71670    0.95840    1.000
    H819     H        0.86760    0.74830    0.95950    1.000
    C1270    C        0.83364    0.49880    0.78520    1.000
    C1271    C        0.80426    0.52700    0.81180    1.000
    C1272    C        0.89463    0.32850    0.61250    1.000
    C1273    C        0.82766    0.59970    0.85190    1.000
    H820     H        0.81670    0.61010    0.83990    1.000
    C1274    C        0.69951    0.46410    0.93620    1.000
    H821     H        0.69090    0.44480    0.92260    1.000
    C1275    C        0.66330    0.20140    0.56100    1.000
    C1276    C        0.71207    0.50010    0.81380    1.000
    C1277    C        0.71984    0.52510    0.84820    1.000
    H822     H        0.71300    0.53690    0.87250    1.000
    C1278    C        0.86283    0.59110    0.14580    1.000
    H823     H        0.86640    0.58410    0.17580    1.000
    C1279    C        0.84895    0.54430    0.86020    1.000
    H824     H        0.85310    0.51430    0.85420    1.000
    C1280    C        0.87564    0.62690    0.95790    1.000
    H825     H        0.87810    0.59520    0.95870    1.000
    C1281    C        0.86103    0.69170    0.92980    1.000
    H826     H        0.85290    0.70580    0.90960    1.000
    C1282    C        0.72985    0.48420    0.95890    1.000
    C1283    C        0.87404    0.43230    0.66270    1.000
    H827     H        0.87280    0.46370    0.65560    1.000
    C1284    C        0.88305    0.70290    0.98490    1.000
    C1285    C        0.85529    0.44320    0.72990    1.000
    C1286    C        0.85189    0.56170    0.11970    1.000
    H828     H        0.84830    0.53310    0.13160    1.000
    C1287    C        0.84662    0.57440    0.07760    1.000
    C1288    C        0.72134    0.48360    0.77900    1.000
    H829     H        0.71560    0.46690    0.75560    1.000
    C1289    C        0.71853    0.45220    0.93600    1.000
    H830     H        0.72300    0.42550    0.92180    1.000
    C1290    C        0.83532    0.54030    0.04950    1.000
    C1291    C        0.81401    0.41670    0.94810    1.000
    C1292    C        0.85168    0.61180    0.05910    1.000
    H831     H        0.84850    0.61900    0.02880    1.000
    C1293    C        0.67839    0.39990    0.70260    1.000
    H832     H        0.68480    0.42780    0.70130    1.000
    C1294    C        0.83643    0.62800    0.88090    1.000
    H833     H        0.83120    0.65660    0.88790    1.000
    C1295    C        0.67013    0.24060    0.58620    1.000
    C1296    C        0.67454    0.51870    0.95300    1.000
    C1297    C        0.74862    0.51490    0.81030    1.000
    C1298    C        0.65867    0.35260    0.73900    1.000
    H834     H        0.65070    0.34720    0.76340    1.000
    C1299    C        0.86975    0.27260    0.81900    1.000
    C1300    C        0.70545    0.52880    0.98210    1.000
    H835     H        0.70100    0.55260    0.00060    1.000
    C1301    C        0.69182    0.48990    0.81390    1.000
    C1302    C        0.84662    0.32570    0.86800    1.000
    C1303    C        0.88497    0.35660    0.64300    1.000
    C1304    C        0.81496    0.48000    0.99900    1.000
    C1305    C        0.83824    0.53190    0.00490    1.000
    H836     H        0.84780    0.54740    0.99070    1.000
    C1306    C        0.67088    0.32670    0.66990    1.000
    C1307    C        0.74998    0.47210    0.96180    1.000
    C1308    C        0.66038    0.32170    0.70770    1.000
    H837     H        0.65400    0.29400    0.71120    1.000
    C1309    C        0.86593    0.41480    0.70110    1.000
    C1310    C        0.78629    0.45610    0.96810    1.000
    C1311    C        0.68014    0.36640    0.66750    1.000
    H838     H        0.68780    0.37210    0.64260    1.000
    C1312    C        0.85782    0.57080    0.88760    1.000
    H839     H        0.86860    0.55930    0.90020    1.000
    C1313    C        0.67234    0.29820    0.63290    1.000
    C1314    C        0.83434    0.35670    0.89660    1.000
    C1315    C        0.81195    0.48690    0.04080    1.000
    H840     H        0.80210    0.47110    0.05340    1.000
    C1316    C        0.82906    0.50500    0.98100    1.000
    H841     H        0.83190    0.50170    0.94990    1.000
    C1317    C        0.77661    0.52200    0.85080    1.000
    H842     H        0.77030    0.52300    0.87860    1.000
    C1318    C        0.83991    0.42790    0.75030    1.000
    H843     H        0.83590    0.39790    0.74440    1.000
    C1319    C        0.72381    0.51890    0.98090    1.000
    H844     H        0.73190    0.53820    0.99650    1.000
    C1320    C        0.84935    0.51930    0.76030    1.000
    H845     H        0.85200    0.55090    0.76180    1.000
    C1321    C        0.85897    0.49080    0.73680    1.000
    H846     H        0.86940    0.50270    0.72280    1.000
    C1322    C        0.64530    0.19440    0.55350    1.000
    H847     H        0.63620    0.21350    0.56580    1.000
    C1323    C        0.77763    0.52130    0.77190    1.000
    H848     H        0.77150    0.52170    0.74370    1.000
    C1324    C        0.86203    0.64140    0.08480    1.000
    H849     H        0.86500    0.67050    0.07300    1.000
    C1325    C        0.82113    0.51400    0.06910    1.000
    H850     H        0.81840    0.51560    0.10040    1.000
    C1326    C        0.85238    0.61700    0.90040    1.000
    C1327    C        0.76779    0.51800    0.81380    1.000
    C1328    C        0.76150    0.50780    0.96940    1.000
    H851     H        0.75700    0.53780    0.97250    1.000
    C1329    C        0.67440    0.16690    0.54600    1.000
    H852     H        0.68680    0.17330    0.54920    1.000
    C1330    C        0.86494    0.32140    0.88050    1.000
    H853     H        0.86970    0.33710    0.90590    1.000
    C1331    C        0.87900    0.66330    0.15160    1.000
    C1332    C        0.82802    0.39260    0.96790    1.000
    H854     H        0.83060    0.39700    0.99910    1.000
    C1333    C        0.64140    0.15470    0.52480    1.000
    H855     H        0.63050    0.15530    0.50830    1.000
    C1334    C        0.86777    0.62980    0.12490    1.000
    C1335    C        0.67080    0.12400    0.52710    1.000
    H856     H        0.67960    0.10210    0.52000    1.000
    C1336    C        0.86311    0.64440    0.92950    1.000
    C1337    C        0.75603    0.42940    0.95410    1.000
    H857     H        0.74800    0.40530    0.94750    1.000
    C1338    C        0.85146    0.27860    0.80650    1.000
    H858     H        0.84680    0.26330    0.78080    1.000
    C1339    C        0.74042    0.49210    0.77790    1.000
    H859     H        0.74720    0.48090    0.75320    1.000
    C1340    C        0.69461    0.50400    0.95680    1.000
    C1341    C        0.79579    0.52520    0.85140    1.000
    H860     H        0.80220    0.52590    0.87920    1.000
    C1342    C        0.83801    0.36350    0.94380    1.000
    H861     H        0.84750    0.34740    0.95790    1.000
    C1343    C        0.79588    0.52390    0.77340    1.000
    H862     H        0.80250    0.52340    0.74600    1.000
    C1344    C        0.87963    0.24260    0.79080    1.000
    C1345    C        0.77560    0.42160    0.95630    1.000
    H863     H        0.78040    0.39250    0.94950    1.000
    C1346    C        0.86921    0.36870    0.71110    1.000
    H864     H        0.86500    0.35620    0.73870    1.000
    C1347    C        0.84055    0.30680    0.83210    1.000
    H865     H        0.82860    0.31220    0.82290    1.000
    C1348    C        0.87529    0.29420    0.85460    1.000
    H866     H        0.88740    0.29070    0.86300    1.000
    C1349    C        0.77972    0.50000    0.97260    1.000
    H867     H        0.78760    0.52470    0.97780    1.000
    C1350    C        0.73785    0.53210    0.84580    1.000
    H868     H        0.74340    0.54930    0.86910    1.000
    N113     N        0.66292    0.25770    0.62540    1.000
    N114     N        0.66744    0.39050    0.73770    1.000
    N115     N        0.68306    0.30230    0.59750    1.000
    N116     N        0.65007    0.23940    0.65240    1.000
    H869     H        0.64530    0.21300    0.64540    1.000
    H870     H        0.64660    0.25400    0.67680    1.000
    N117     N        0.65180    0.11730    0.51960    1.000
    N118     N        0.68198    0.26870    0.56840    1.000
    N119     N        0.82407    0.53310    0.81020    1.000
    N120     N        0.80481    0.44930    0.97290    1.000
    O169     O        0.87575    0.22320    0.75710    1.000
    O170     O        0.89506    0.77370    0.00500    1.000
    O171     O        0.90185    0.71300    0.04780    1.000
    O172     O        0.66481    0.49540    0.92700    1.000
    O173     O        0.89213    0.28670    0.61330    1.000
    O174     O        0.67038    0.54850    0.97980    1.000
    O175     O        0.90529    0.34770    0.58350    1.000
    O176     O        0.88272    0.70140    0.13650    1.000
    O177     O        0.88400    0.65070    0.19080    1.000
    O178     O        0.68380    0.50440    0.84690    1.000
    O179     O        0.89745    0.23460    0.80710    1.000
    O180     O        0.68629    0.46720    0.78440    1.000
    Cu43     Cu       0.66305    0.44067    0.78400    1.000
    Cu44     Cu       0.64554    0.56361    0.98610    1.000
    Cu45     Cu       0.65700    0.52168    0.86606    1.000
    C1351    C        0.82028    0.87710    0.37830    1.000
    H871     H        0.81690    0.87030    0.34800    1.000
    C1352    C        0.88477    0.15760    0.48590    1.000
    H872     H        0.89280    0.14520    0.50750    1.000
    C1353    C        0.81060    0.90800    0.40300    1.000
    H873     H        0.80120    0.92410    0.38860    1.000
    C1354    C        0.83008    0.95600    0.27970    1.000
    H874     H        0.82040    0.94300    0.29610    1.000
    C1355    C        0.87836    0.84170    0.18140    1.000
    H875     H        0.88000    0.81050    0.18890    1.000
    C1356    C        0.88400    0.90430    0.13450    1.000
    H876     H        0.89020    0.91700    0.10940    1.000
    C1357    C        0.83301    0.06010    0.33930    1.000
    C1358    C        0.89422    0.23340    0.51500    1.000
    C1359    C        0.87044    0.21670    0.45840    1.000
    H877     H        0.86760    0.24830    0.45950    1.000
    C1360    C        0.83364    0.99880    0.28520    1.000
    C1361    C        0.80426    0.02700    0.31180    1.000
    C1362    C        0.89463    0.82850    0.11250    1.000
    C1363    C        0.82766    0.09970    0.35190    1.000
    H878     H        0.81670    0.11010    0.33990    1.000
    C1364    C        0.69951    0.96410    0.43620    1.000
    H879     H        0.69090    0.94480    0.42260    1.000
    C1365    C        0.66330    0.70140    0.06100    1.000
    C1366    C        0.71207    0.00010    0.31380    1.000
    C1367    C        0.71984    0.02510    0.34820    1.000
    H880     H        0.71300    0.03690    0.37250    1.000
    C1368    C        0.86283    0.09110    0.64580    1.000
    H881     H        0.86640    0.08410    0.67580    1.000
    C1369    C        0.84895    0.04430    0.36020    1.000
    H882     H        0.85310    0.01430    0.35420    1.000
    C1370    C        0.87564    0.12690    0.45790    1.000
    H883     H        0.87810    0.09520    0.45870    1.000
    C1371    C        0.86103    0.19170    0.42980    1.000
    H884     H        0.85290    0.20580    0.40960    1.000
    C1372    C        0.72985    0.98420    0.45890    1.000
    C1373    C        0.87404    0.93230    0.16270    1.000
    H885     H        0.87280    0.96370    0.15560    1.000
    C1374    C        0.88305    0.20290    0.48490    1.000
    C1375    C        0.85529    0.94320    0.22990    1.000
    C1376    C        0.85189    0.06170    0.61970    1.000
    H886     H        0.84830    0.03310    0.63160    1.000
    C1377    C        0.84662    0.07440    0.57760    1.000
    C1378    C        0.72134    0.98360    0.27900    1.000
    H887     H        0.71560    0.96690    0.25560    1.000
    C1379    C        0.71853    0.95220    0.43600    1.000
    H888     H        0.72300    0.92550    0.42180    1.000
    C1380    C        0.83532    0.04030    0.54950    1.000
    C1381    C        0.81401    0.91670    0.44810    1.000
    C1382    C        0.85168    0.11180    0.55910    1.000
    H889     H        0.84850    0.11900    0.52880    1.000
    C1383    C        0.67839    0.89990    0.20260    1.000
    H890     H        0.68480    0.92780    0.20130    1.000
    C1384    C        0.83643    0.12800    0.38090    1.000
    H891     H        0.83120    0.15660    0.38790    1.000
    C1385    C        0.67013    0.74060    0.08620    1.000
    C1386    C        0.67454    0.01870    0.45300    1.000
    C1387    C        0.74862    0.01490    0.31030    1.000
    C1388    C        0.65867    0.85260    0.23900    1.000
    H892     H        0.65070    0.84720    0.26340    1.000
    C1389    C        0.86975    0.77260    0.31900    1.000
    C1390    C        0.70545    0.02880    0.48210    1.000
    H893     H        0.70100    0.05260    0.50060    1.000
    C1391    C        0.69182    0.98990    0.31390    1.000
    C1392    C        0.84662    0.82570    0.36800    1.000
    C1393    C        0.88497    0.85660    0.14300    1.000
    C1394    C        0.81496    0.98000    0.49900    1.000
    C1395    C        0.83824    0.03190    0.50490    1.000
    H894     H        0.84780    0.04740    0.49070    1.000
    C1396    C        0.67088    0.82670    0.16990    1.000
    C1397    C        0.74998    0.97210    0.46180    1.000
    C1398    C        0.66038    0.82170    0.20770    1.000
    H895     H        0.65400    0.79400    0.21120    1.000
    C1399    C        0.86593    0.91480    0.20110    1.000
    C1400    C        0.78629    0.95610    0.46810    1.000
    C1401    C        0.68014    0.86640    0.16750    1.000
    H896     H        0.68780    0.87210    0.14260    1.000
    C1402    C        0.85782    0.07080    0.38760    1.000
    H897     H        0.86860    0.05930    0.40020    1.000
    C1403    C        0.67234    0.79820    0.13290    1.000
    C1404    C        0.83434    0.85670    0.39660    1.000
    C1405    C        0.81195    0.98690    0.54080    1.000
    H898     H        0.80210    0.97110    0.55340    1.000
    C1406    C        0.82906    0.00500    0.48100    1.000
    H899     H        0.83190    0.00170    0.44990    1.000
    C1407    C        0.77661    0.02200    0.35080    1.000
    H900     H        0.77030    0.02300    0.37860    1.000
    C1408    C        0.83991    0.92790    0.25030    1.000
    H901     H        0.83590    0.89790    0.24440    1.000
    C1409    C        0.72381    0.01890    0.48090    1.000
    H902     H        0.73190    0.03820    0.49650    1.000
    C1410    C        0.84935    0.01930    0.26030    1.000
    H903     H        0.85200    0.05090    0.26180    1.000
    C1411    C        0.85897    0.99080    0.23680    1.000
    H904     H        0.86940    0.00270    0.22280    1.000
    C1412    C        0.64530    0.69440    0.05350    1.000
    H905     H        0.63620    0.71350    0.06580    1.000
    C1413    C        0.77763    0.02130    0.27190    1.000
    H906     H        0.77150    0.02170    0.24370    1.000
    C1414    C        0.86203    0.14140    0.58480    1.000
    H907     H        0.86500    0.17050    0.57300    1.000
    C1415    C        0.82113    0.01400    0.56910    1.000
    H908     H        0.81840    0.01560    0.60040    1.000
    C1416    C        0.85238    0.11700    0.40040    1.000
    C1417    C        0.76779    0.01800    0.31380    1.000
    C1418    C        0.76150    0.00780    0.46940    1.000
    H909     H        0.75700    0.03780    0.47250    1.000
    C1419    C        0.67440    0.66690    0.04600    1.000
    H910     H        0.68680    0.67330    0.04920    1.000
    C1420    C        0.86494    0.82140    0.38050    1.000
    H911     H        0.86970    0.83710    0.40590    1.000
    C1421    C        0.87900    0.16330    0.65160    1.000
    C1422    C        0.82802    0.89260    0.46790    1.000
    H912     H        0.83060    0.89700    0.49910    1.000
    C1423    C        0.64140    0.65470    0.02480    1.000
    H913     H        0.63050    0.65530    0.00830    1.000
    C1424    C        0.86777    0.12980    0.62490    1.000
    C1425    C        0.67080    0.62400    0.02710    1.000
    H914     H        0.67960    0.60210    0.02000    1.000
    C1426    C        0.86311    0.14440    0.42950    1.000
    C1427    C        0.75603    0.92940    0.45410    1.000
    H915     H        0.74800    0.90530    0.44750    1.000
    C1428    C        0.85146    0.77860    0.30650    1.000
    H916     H        0.84680    0.76330    0.28080    1.000
    C1429    C        0.74042    0.99210    0.27790    1.000
    H917     H        0.74720    0.98090    0.25320    1.000
    C1430    C        0.69461    0.00400    0.45680    1.000
    C1431    C        0.79579    0.02520    0.35140    1.000
    H918     H        0.80220    0.02590    0.37920    1.000
    C1432    C        0.83801    0.86350    0.44380    1.000
    H919     H        0.84750    0.84740    0.45790    1.000
    C1433    C        0.79588    0.02390    0.27340    1.000
    H920     H        0.80250    0.02340    0.24600    1.000
    C1434    C        0.87963    0.74260    0.29080    1.000
    C1435    C        0.77560    0.92160    0.45630    1.000
    H921     H        0.78040    0.89250    0.44950    1.000
    C1436    C        0.86921    0.86870    0.21110    1.000
    H922     H        0.86500    0.85620    0.23870    1.000
    C1437    C        0.84055    0.80680    0.33210    1.000
    H923     H        0.82860    0.81220    0.32290    1.000
    C1438    C        0.87529    0.79420    0.35460    1.000
    H924     H        0.88740    0.79070    0.36300    1.000
    C1439    C        0.77972    0.00000    0.47260    1.000
    H925     H        0.78760    0.02470    0.47780    1.000
    C1440    C        0.73785    0.03210    0.34580    1.000
    H926     H        0.74340    0.04930    0.36910    1.000
    N121     N        0.66292    0.75770    0.12540    1.000
    N122     N        0.66744    0.89050    0.23770    1.000
    N123     N        0.68306    0.80230    0.09750    1.000
    N124     N        0.65007    0.73940    0.15240    1.000
    H927     H        0.64530    0.71300    0.14540    1.000
    H928     H        0.64660    0.75400    0.17680    1.000
    N125     N        0.65180    0.61730    0.01960    1.000
    N126     N        0.68198    0.76870    0.06840    1.000
    N127     N        0.82407    0.03310    0.31020    1.000
    N128     N        0.80481    0.94930    0.47290    1.000
    O181     O        0.87575    0.72320    0.25710    1.000
    O182     O        0.89506    0.27370    0.50500    1.000
    O183     O        0.90185    0.21300    0.54780    1.000
    O184     O        0.66481    0.99540    0.42700    1.000
    O185     O        0.89213    0.78670    0.11330    1.000
    O186     O        0.67038    0.04850    0.47980    1.000
    O187     O        0.90529    0.84770    0.08350    1.000
    O188     O        0.88272    0.20140    0.63650    1.000
    O189     O        0.88400    0.15070    0.69080    1.000
    O190     O        0.68380    0.00440    0.34690    1.000
    O191     O        0.89745    0.73460    0.30710    1.000
    O192     O        0.68629    0.96720    0.28440    1.000
    Cu46     Cu       0.66305    0.94067    0.28400    1.000
    Cu47     Cu       0.64554    0.06361    0.48610    1.000
    Cu48     Cu       0.65700    0.02168    0.36606    1.000
