# CIF file generated by openbabel 3.1.0, see https://openbabel.org
data_I
_chemical_name_common 'image0'
_cell_length_a 9.1212
_cell_length_b 18.8576
_cell_length_c 8.1265
_cell_angle_alpha 90
_cell_angle_beta 111.963
_cell_angle_gamma 90
_space_group_name_H-M_alt 'P 1'
_space_group_name_Hall 'P 1'
loop_
    _symmetry_equiv_pos_as_xyz
    x,y,z
loop_
    _atom_site_label
    _atom_site_type_symbol
    _atom_site_fract_x
    _atom_site_fract_y
    _atom_site_fract_z
    _atom_site_occupancy
    Zn1      Zn       0.30126    0.52966    0.33651    1.000
    O1       O        0.05790    0.60235    0.46470    1.000
    O2       O        0.22910    0.62633    0.33460    1.000
    O3       O        0.78570    0.94843    0.32640    1.000
    O4       O        0.98300    0.97738    0.24710    1.000
    N1       N        0.23890    0.47231    0.64160    1.000
    N2       N        0.35190    0.48378    0.57860    1.000
    N3       N        0.48890    0.45855    0.69240    1.000
    C1       C        0.12530    0.64376    0.39750    1.000
    C2       C        0.08170    0.72038    0.39100    1.000
    C3       C        0.17210    0.77315    0.35610    1.000
    H1       H        0.26590    0.76140    0.34240    1.000
    C4       C        0.12370    0.84289    0.34160    1.000
    H2       H        0.18560    0.87800    0.31980    1.000
    C5       C        0.98260    0.86092    0.35940    1.000
    C6       C        0.89670    0.80868    0.40240    1.000
    H3       H        0.80490    0.82070    0.42040    1.000
    C7       C        0.94570    0.73923    0.41890    1.000
    H4       H        0.88730    0.70460    0.44890    1.000
    C8       C        0.91590    0.93374    0.31080    1.000
    C9       C        0.30420    0.43970    0.79680    1.000
    H5       H        0.25250    0.42540    0.87050    1.000
    C10      C        0.46080    0.43080    0.82860    1.000
    H6       H        0.53500    0.40930    0.92780    1.000
    Zn2      Zn       0.69874    0.02966    0.16349    1.000
    O5       O        0.94210    0.10235    0.03530    1.000
    O6       O        0.77090    0.12633    0.16540    1.000
    O7       O        0.21430    0.44843    0.17360    1.000
    O8       O        0.01700    0.47738    0.25290    1.000
    N4       N        0.76110    0.97231    0.85840    1.000
    N5       N        0.64810    0.98378    0.92140    1.000
    N6       N        0.51110    0.95855    0.80760    1.000
    C11      C        0.87470    0.14376    0.10250    1.000
    C12      C        0.91830    0.22038    0.10900    1.000
    C13      C        0.82790    0.27315    0.14390    1.000
    H7       H        0.73410    0.26140    0.15760    1.000
    C14      C        0.87630    0.34289    0.15840    1.000
    H8       H        0.81440    0.37800    0.18020    1.000
    C15      C        0.01740    0.36092    0.14060    1.000
    C16      C        0.10330    0.30868    0.09760    1.000
    H9       H        0.19510    0.32070    0.07960    1.000
    C17      C        0.05430    0.23923    0.08110    1.000
    H10      H        0.11270    0.20460    0.05110    1.000
    C18      C        0.08410    0.43374    0.18920    1.000
    C19      C        0.69580    0.93970    0.70320    1.000
    H11      H        0.74750    0.92540    0.62950    1.000
    C20      C        0.53920    0.93080    0.67140    1.000
    H12      H        0.46500    0.90930    0.57220    1.000
    Zn3      Zn       0.69874    0.47034    0.66349    1.000
    O9       O        0.94210    0.39765    0.53530    1.000
    O10      O        0.77090    0.37367    0.66540    1.000
    O11      O        0.21430    0.05157    0.67360    1.000
    O12      O        0.01700    0.02262    0.75290    1.000
    N7       N        0.76110    0.52769    0.35840    1.000
    N8       N        0.64810    0.51622    0.42140    1.000
    N9       N        0.51110    0.54145    0.30760    1.000
    C21      C        0.87470    0.35624    0.60250    1.000
    C22      C        0.91830    0.27962    0.60900    1.000
    C23      C        0.82790    0.22685    0.64390    1.000
    H13      H        0.73410    0.23860    0.65760    1.000
    C24      C        0.87630    0.15711    0.65840    1.000
    H14      H        0.81440    0.12200    0.68020    1.000
    C25      C        0.01740    0.13908    0.64060    1.000
    C26      C        0.10330    0.19132    0.59760    1.000
    H15      H        0.19510    0.17930    0.57960    1.000
    C27      C        0.05430    0.26077    0.58110    1.000
    H16      H        0.11270    0.29540    0.55110    1.000
    C28      C        0.08410    0.06626    0.68920    1.000
    C29      C        0.69580    0.56030    0.20320    1.000
    H17      H        0.74750    0.57460    0.12950    1.000
    C30      C        0.53920    0.56920    0.17140    1.000
    H18      H        0.46500    0.59070    0.07220    1.000
    Zn4      Zn       0.30126    0.97034    0.83651    1.000
    O13      O        0.05790    0.89765    0.96470    1.000
    O14      O        0.22910    0.87367    0.83460    1.000
    O15      O        0.78570    0.55157    0.82640    1.000
    O16      O        0.98300    0.52262    0.74710    1.000
    N10      N        0.23890    0.02769    0.14160    1.000
    N11      N        0.35190    0.01622    0.07860    1.000
    N12      N        0.48890    0.04145    0.19240    1.000
    C31      C        0.12530    0.85624    0.89750    1.000
    C32      C        0.08170    0.77962    0.89100    1.000
    C33      C        0.17210    0.72685    0.85610    1.000
    H19      H        0.26590    0.73860    0.84240    1.000
    C34      C        0.12370    0.65711    0.84160    1.000
    H20      H        0.18560    0.62200    0.81980    1.000
    C35      C        0.98260    0.63908    0.85940    1.000
    C36      C        0.89670    0.69132    0.90240    1.000
    H21      H        0.80490    0.67930    0.92040    1.000
    C37      C        0.94570    0.76077    0.91890    1.000
    H22      H        0.88730    0.79540    0.94890    1.000
    C38      C        0.91590    0.56626    0.81080    1.000
    C39      C        0.30420    0.06030    0.29680    1.000
    H23      H        0.25250    0.07460    0.37050    1.000
    C40      C        0.46080    0.06920    0.32860    1.000
    H24      H        0.53500    0.09070    0.42780    1.000
    Zn5      Zn       0.00000    0.50000    0.50000    1.000
    Zn6      Zn       0.00000    0.00000    0.00000    1.000
