# CIF file generated by openbabel 3.1.0, see https://openbabel.org
data_I
_chemical_name_common 'image0'
_cell_length_a 24.4031
_cell_length_b 17.1178
_cell_length_c 16.0742
_cell_angle_alpha 90
_cell_angle_beta 94.521
_cell_angle_gamma 90
_space_group_name_H-M_alt 'P 1'
_space_group_name_Hall 'P 1'
loop_
    _symmetry_equiv_pos_as_xyz
    x,y,z
loop_
    _atom_site_label
    _atom_site_type_symbol
    _atom_site_fract_x
    _atom_site_fract_y
    _atom_site_fract_z
    _atom_site_occupancy
    Zn1      Zn       0.43142    0.28480    0.80330    1.000
    Zn2      Zn       0.07741    0.30486    0.20304    1.000
    Zn3      Zn       0.74124    0.34069    0.46968    1.000
    N1       N        0.44480    0.30680    0.92640    1.000
    N2       N        0.48330    0.35420    0.04180    1.000
    N3       N        0.62780    0.36020    0.26930    1.000
    N4       N        0.68810    0.32020    0.37240    1.000
    N5       N        0.36360    0.32320    0.73810    1.000
    N6       N        0.30680    0.38010    0.64450    1.000
    N7       N        0.20010    0.38900    0.37230    1.000
    N8       N        0.14400    0.33570    0.27630    1.000
    N9       N        0.78030    0.25450    0.53420    1.000
    N10      N        0.84590    0.17720    0.58250    1.000
    N11      N        0.92270    0.92540    0.51800    1.000
    N12      N        0.91730    0.84360    0.41420    1.000
    O1       O        0.43438    0.17010    0.78580    1.000
    O2       O        0.36151    0.16390    0.85990    1.000
    O3       O        0.53101    0.93320    0.71500    1.000
    O4       O        0.50317    0.81740    0.75380    1.000
    O5       O        0.34670    0.80200    0.93280    1.000
    O6       O        0.29743    0.90750    0.95390    1.000
    O7       O        0.00978    0.34380    0.24850    1.000
    O8       O        0.04426    0.46130    0.23480    1.000
    O9       O        0.82570    0.31400    0.35990    1.000
    O10      O        0.79587    0.41430    0.43020    1.000
    O11      O        0.85554    0.67880    0.35190    1.000
    O12      O        0.93464    0.69180    0.29340    1.000
    C1       C        0.48200    0.35380    0.95850    1.000
    H1       H        0.50490    0.38360    0.92770    1.000
    C2       C        0.41970    0.27610    0.99250    1.000
    H2       H        0.39060    0.24080    0.98870    1.000
    C3       C        0.44410    0.30530    0.06320    1.000
    H3       H        0.43530    0.29390    0.11720    1.000
    C4       C        0.52070    0.40240    0.09740    1.000
    H4       H        0.49930    0.43760    0.12930    1.000
    H5       H        0.54400    0.43360    0.06430    1.000
    C5       C        0.55520    0.35170    0.15520    1.000
    H6       H        0.53080    0.32120    0.18730    1.000
    H7       H        0.57440    0.31520    0.12160    1.000
    C6       C        0.59150    0.38460    0.20750    1.000
    H8       H        0.57030    0.42380    0.23440    1.000
    H9       H        0.61420    0.41370    0.17140    1.000
    C7       C        0.65030    0.37690    0.34760    1.000
    H10      H        0.64140    0.41980    0.37930    1.000
    C8       C        0.70460    0.28790    0.29670    1.000
    H11      H        0.73660    0.25980    0.29020    1.000
    C9       C        0.66330    0.30640    0.23350    1.000
    H12      H        0.66000    0.28720    0.17920    1.000
    C10      C        0.31100    0.30260    0.75080    1.000
    H13      H        0.30110    0.26920    0.79260    1.000
    C11      C        0.35880    0.37080    0.67530    1.000
    H14      H        0.38840    0.39590    0.65380    1.000
    C12      C        0.27560    0.33750    0.69420    1.000
    H15      H        0.23740    0.33330    0.69000    1.000
    C13      C        0.28510    0.42960    0.57470    1.000
    H16      H        0.31530    0.45680    0.55160    1.000
    H17      H        0.26060    0.46850    0.59520    1.000
    C14      C        0.25440    0.38180    0.50690    1.000
    H18      H        0.28050    0.35210    0.47710    1.000
    H19      H        0.23030    0.34510    0.53210    1.000
    C15      C        0.22090    0.43320    0.44630    1.000
    H20      H        0.19010    0.45490    0.47350    1.000
    H21      H        0.24340    0.47630    0.42950    1.000
    C16      C        0.23080    0.36240    0.31320    1.000
    H22      H        0.26880    0.36700    0.31260    1.000
    C17      C        0.19650    0.32750    0.25440    1.000
    H23      H        0.20700    0.30230    0.20700    1.000
    C18      C        0.14880    0.37440    0.34530    1.000
    H24      H        0.11880    0.39060    0.37320    1.000
    C19      C        0.82570    0.21990    0.51960    1.000
    H25      H        0.84230    0.22490    0.46980    1.000
    C20      C        0.77580    0.23910    0.61520    1.000
    H26      H        0.74900    0.25960    0.64690    1.000
    C21      C        0.81570    0.18970    0.64400    1.000
    H27      H        0.82070    0.16870    0.69740    1.000
    C22      C        0.89670    0.13040    0.58660    1.000
    H28      H        0.91620    0.13590    0.64120    1.000
    H29      H        0.92040    0.14870    0.54510    1.000
    C23      C        0.88160    0.04130    0.57000    1.000
    H30      H        0.86270    0.02030    0.61600    1.000
    H31      H        0.85760    0.03620    0.51920    1.000
    C24      C        0.93380    0.99890    0.56190    1.000
    H32      H        0.95820    0.03070    0.53140    1.000
    H33      H        0.95160    0.98860    0.61690    1.000
    C25      C        0.91530    0.85500    0.55080    1.000
    H34      H        0.91250    0.84350    0.60690    1.000
    C26      C        0.91260    0.80370    0.48660    1.000
    H35      H        0.90820    0.74990    0.49110    1.000
    C27      C        0.92390    0.91480    0.43630    1.000
    H36      H        0.92900    0.95510    0.39900    1.000
    C28      C        0.39870    0.13310    0.82300    1.000
    C29      C        0.40350    0.04520    0.82340    1.000
    C30      C        0.44490    0.00850    0.78580    1.000
    H37      H        0.46940    0.03840    0.75770    1.000
    C31      C        0.45120    0.92850    0.78830    1.000
    C32      C        0.49890    0.89210    0.74930    1.000
    C33      C        0.41530    0.88450    0.83090    1.000
    H38      H        0.41920    0.83050    0.83310    1.000
    C34      C        0.37300    0.92040    0.87090    1.000
    C35      C        0.33690    0.87140    0.92230    1.000
    C36      C        0.36730    0.00070    0.86550    1.000
    H39      H        0.33870    0.02500    0.89050    1.000
    C37      C        0.00760    0.41680    0.25420    1.000
    C38      C        0.95640    0.45080    0.28750    1.000
    C39      C        0.91620    0.40360    0.31500    1.000
    H40      H        0.91980    0.34960    0.31200    1.000
    C40      C        0.87020    0.43560    0.34730    1.000
    C41      C        0.82770    0.38290    0.38010    1.000
    C42      C        0.86490    0.51620    0.34990    1.000
    H41      H        0.83440    0.53790    0.37240    1.000
    C43      C        0.90370    0.56500    0.31990    1.000
    C44      C        0.95050    0.53150    0.28890    1.000
    H42      H        0.97750    0.56330    0.26930    1.000
    C45      C        0.89660    0.65180    0.32250    1.000
    C46      C        0.67960    0.37010    0.30770    1.000
    H43      H        0.70520    0.40600    0.29140    1.000
    C47      C        0.63930    0.27520    0.38090    1.000
    H44      H        0.63320    0.23890    0.42220    1.000
    C48      C        0.60260    0.29790    0.31320    1.000
    H45      H        0.56810    0.27650    0.29930    1.000
    Zn4      Zn       0.56858    0.78480    0.69670    1.000
    Zn5      Zn       0.92259    0.80486    0.29696    1.000
    Zn6      Zn       0.25876    0.84069    0.03032    1.000
    N13      N        0.55520    0.80680    0.57360    1.000
    N14      N        0.51670    0.85420    0.45820    1.000
    N15      N        0.37220    0.86020    0.23070    1.000
    N16      N        0.31190    0.82020    0.12760    1.000
    N17      N        0.63640    0.82320    0.76190    1.000
    N18      N        0.69320    0.88010    0.85550    1.000
    N19      N        0.79990    0.88900    0.12770    1.000
    N20      N        0.85600    0.83570    0.22370    1.000
    N21      N        0.21970    0.75450    0.96580    1.000
    N22      N        0.15410    0.67720    0.91750    1.000
    N23      N        0.07730    0.42540    0.98200    1.000
    N24      N        0.08270    0.34360    0.08580    1.000
    O13      O        0.56562    0.67010    0.71420    1.000
    O14      O        0.63849    0.66390    0.64010    1.000
    O15      O        0.46899    0.43320    0.78500    1.000
    O16      O        0.49683    0.31740    0.74620    1.000
    O17      O        0.65330    0.30200    0.56720    1.000
    O18      O        0.70257    0.40750    0.54610    1.000
    O19      O        0.99022    0.84380    0.25150    1.000
    O20      O        0.95574    0.96130    0.26520    1.000
    O21      O        0.17430    0.81400    0.14010    1.000
    O22      O        0.20413    0.91430    0.06980    1.000
    O23      O        0.14446    0.17880    0.14810    1.000
    O24      O        0.06536    0.19180    0.20660    1.000
    C49      C        0.51800    0.85380    0.54150    1.000
    H46      H        0.49510    0.88360    0.57230    1.000
    C50      C        0.58030    0.77610    0.50750    1.000
    H47      H        0.60940    0.74080    0.51130    1.000
    C51      C        0.55590    0.80530    0.43680    1.000
    H48      H        0.56470    0.79390    0.38280    1.000
    C52      C        0.47930    0.90240    0.40260    1.000
    H49      H        0.50070    0.93760    0.37070    1.000
    H50      H        0.45600    0.93360    0.43570    1.000
    C53      C        0.44480    0.85170    0.34480    1.000
    H51      H        0.46920    0.82120    0.31270    1.000
    H52      H        0.42560    0.81520    0.37840    1.000
    C54      C        0.40850    0.88460    0.29250    1.000
    H53      H        0.42970    0.92380    0.26560    1.000
    H54      H        0.38580    0.91370    0.32860    1.000
    C55      C        0.34970    0.87690    0.15240    1.000
    H55      H        0.35860    0.91980    0.12070    1.000
    C56      C        0.29540    0.78790    0.20330    1.000
    H56      H        0.26340    0.75980    0.20980    1.000
    C57      C        0.33670    0.80640    0.26650    1.000
    H57      H        0.34000    0.78720    0.32080    1.000
    C58      C        0.68900    0.80260    0.74920    1.000
    H58      H        0.69890    0.76920    0.70740    1.000
    C59      C        0.64120    0.87080    0.82470    1.000
    H59      H        0.61160    0.89590    0.84620    1.000
    C60      C        0.72440    0.83750    0.80580    1.000
    H60      H        0.76260    0.83330    0.81000    1.000
    C61      C        0.71490    0.92960    0.92530    1.000
    H61      H        0.68470    0.95680    0.94840    1.000
    H62      H        0.73940    0.96850    0.90480    1.000
    C62      C        0.74560    0.88180    0.99310    1.000
    H63      H        0.71950    0.85210    0.02290    1.000
    H64      H        0.76970    0.84510    0.96790    1.000
    C63      C        0.77910    0.93320    0.05370    1.000
    H65      H        0.80990    0.95490    0.02650    1.000
    H66      H        0.75660    0.97630    0.07050    1.000
    C64      C        0.76920    0.86240    0.18680    1.000
    H67      H        0.73120    0.86700    0.18740    1.000
    C65      C        0.80350    0.82750    0.24560    1.000
    H68      H        0.79300    0.80230    0.29300    1.000
    C66      C        0.85120    0.87440    0.15470    1.000
    H69      H        0.88120    0.89060    0.12680    1.000
    C67      C        0.17430    0.71990    0.98040    1.000
    H70      H        0.15770    0.72490    0.03020    1.000
    C68      C        0.22420    0.73910    0.88480    1.000
    H71      H        0.25100    0.75960    0.85310    1.000
    C69      C        0.18430    0.68970    0.85600    1.000
    H72      H        0.17930    0.66870    0.80260    1.000
    C70      C        0.10330    0.63040    0.91340    1.000
    H73      H        0.08380    0.63590    0.85880    1.000
    H74      H        0.07960    0.64870    0.95490    1.000
    C71      C        0.11840    0.54130    0.93000    1.000
    H75      H        0.13730    0.52030    0.88400    1.000
    H76      H        0.14240    0.53620    0.98080    1.000
    C72      C        0.06620    0.49890    0.93810    1.000
    H77      H        0.04180    0.53070    0.96860    1.000
    H78      H        0.04840    0.48860    0.88310    1.000
    C73      C        0.08470    0.35500    0.94920    1.000
    H79      H        0.08750    0.34350    0.89310    1.000
    C74      C        0.08740    0.30370    0.01340    1.000
    H80      H        0.09180    0.24990    0.00890    1.000
    C75      C        0.07610    0.41480    0.06370    1.000
    H81      H        0.07100    0.45510    0.10100    1.000
    C76      C        0.60130    0.63310    0.67700    1.000
    C77      C        0.59650    0.54520    0.67660    1.000
    C78      C        0.55510    0.50850    0.71420    1.000
    H82      H        0.53060    0.53840    0.74230    1.000
    C79      C        0.54880    0.42850    0.71170    1.000
    C80      C        0.50110    0.39210    0.75070    1.000
    C81      C        0.58470    0.38450    0.66910    1.000
    H83      H        0.58080    0.33050    0.66690    1.000
    C82      C        0.62700    0.42040    0.62910    1.000
    C83      C        0.66310    0.37140    0.57770    1.000
    C84      C        0.63270    0.50070    0.63450    1.000
    H84      H        0.66130    0.52500    0.60950    1.000
    C85      C        0.99240    0.91680    0.24580    1.000
    C86      C        0.04360    0.95080    0.21250    1.000
    C87      C        0.08380    0.90360    0.18500    1.000
    H85      H        0.08020    0.84960    0.18800    1.000
    C88      C        0.12980    0.93560    0.15270    1.000
    C89      C        0.17230    0.88290    0.11990    1.000
    C90      C        0.13510    0.01620    0.15010    1.000
    H86      H        0.16560    0.03790    0.12760    1.000
    C91      C        0.09630    0.06500    0.18010    1.000
    C92      C        0.04950    0.03150    0.21110    1.000
    H87      H        0.02250    0.06330    0.23070    1.000
    C93      C        0.10340    0.15180    0.17750    1.000
    C94      C        0.32040    0.87010    0.19230    1.000
    H88      H        0.29480    0.90600    0.20860    1.000
    C95      C        0.36070    0.77520    0.11910    1.000
    H89      H        0.36680    0.73890    0.07780    1.000
    C96      C        0.39740    0.79790    0.18680    1.000
    H90      H        0.43190    0.77650    0.20070    1.000
    Zn7      Zn       0.56858    0.71520    0.19670    1.000
    Zn8      Zn       0.92259    0.69514    0.79696    1.000
    Zn9      Zn       0.25876    0.65931    0.53032    1.000
    N25      N        0.55520    0.69320    0.07360    1.000
    N26      N        0.51670    0.64580    0.95820    1.000
    N27      N        0.37220    0.63980    0.73070    1.000
    N28      N        0.31190    0.67980    0.62760    1.000
    N29      N        0.63640    0.67680    0.26190    1.000
    N30      N        0.69320    0.61990    0.35550    1.000
    N31      N        0.79990    0.61100    0.62770    1.000
    N32      N        0.85600    0.66430    0.72370    1.000
    N33      N        0.21970    0.74550    0.46580    1.000
    N34      N        0.15410    0.82280    0.41750    1.000
    N35      N        0.07730    0.07460    0.48200    1.000
    N36      N        0.08270    0.15640    0.58580    1.000
    O25      O        0.56562    0.82990    0.21420    1.000
    O26      O        0.63849    0.83610    0.14010    1.000
    O27      O        0.46899    0.06680    0.28500    1.000
    O28      O        0.49683    0.18260    0.24620    1.000
    O29      O        0.65330    0.19800    0.06720    1.000
    O30      O        0.70257    0.09250    0.04610    1.000
    O31      O        0.99022    0.65620    0.75150    1.000
    O32      O        0.95574    0.53870    0.76520    1.000
    O33      O        0.17430    0.68600    0.64010    1.000
    O34      O        0.20413    0.58570    0.56980    1.000
    O35      O        0.14446    0.32120    0.64810    1.000
    O36      O        0.06536    0.30820    0.70660    1.000
    C97      C        0.51800    0.64620    0.04150    1.000
    H91      H        0.49510    0.61640    0.07230    1.000
    C98      C        0.58030    0.72390    0.00750    1.000
    H92      H        0.60940    0.75920    0.01130    1.000
    C99      C        0.55590    0.69470    0.93680    1.000
    H93      H        0.56470    0.70610    0.88280    1.000
    C100     C        0.47930    0.59760    0.90260    1.000
    H94      H        0.50070    0.56240    0.87070    1.000
    H95      H        0.45600    0.56640    0.93570    1.000
    C101     C        0.44480    0.64830    0.84480    1.000
    H96      H        0.46920    0.67880    0.81270    1.000
    H97      H        0.42560    0.68480    0.87840    1.000
    C102     C        0.40850    0.61540    0.79250    1.000
    H98      H        0.42970    0.57620    0.76560    1.000
    H99      H        0.38580    0.58630    0.82860    1.000
    C103     C        0.34970    0.62310    0.65240    1.000
    H100     H        0.35860    0.58020    0.62070    1.000
    C104     C        0.29540    0.71210    0.70330    1.000
    H101     H        0.26340    0.74020    0.70980    1.000
    C105     C        0.33670    0.69360    0.76650    1.000
    H102     H        0.34000    0.71280    0.82080    1.000
    C106     C        0.68900    0.69740    0.24920    1.000
    H103     H        0.69890    0.73080    0.20740    1.000
    C107     C        0.64120    0.62920    0.32470    1.000
    H104     H        0.61160    0.60410    0.34620    1.000
    C108     C        0.72440    0.66250    0.30580    1.000
    H105     H        0.76260    0.66670    0.31000    1.000
    C109     C        0.71490    0.57040    0.42530    1.000
    H106     H        0.68470    0.54320    0.44840    1.000
    H107     H        0.73940    0.53150    0.40480    1.000
    C110     C        0.74560    0.61820    0.49310    1.000
    H108     H        0.71950    0.64790    0.52290    1.000
    H109     H        0.76970    0.65490    0.46790    1.000
    C111     C        0.77910    0.56680    0.55370    1.000
    H110     H        0.80990    0.54510    0.52650    1.000
    H111     H        0.75660    0.52370    0.57050    1.000
    C112     C        0.76920    0.63760    0.68680    1.000
    H112     H        0.73120    0.63300    0.68740    1.000
    C113     C        0.80350    0.67250    0.74560    1.000
    H113     H        0.79300    0.69770    0.79300    1.000
    C114     C        0.85120    0.62560    0.65470    1.000
    H114     H        0.88120    0.60940    0.62680    1.000
    C115     C        0.17430    0.78010    0.48040    1.000
    H115     H        0.15770    0.77510    0.53020    1.000
    C116     C        0.22420    0.76090    0.38480    1.000
    H116     H        0.25100    0.74040    0.35310    1.000
    C117     C        0.18430    0.81030    0.35600    1.000
    H117     H        0.17930    0.83130    0.30260    1.000
    C118     C        0.10330    0.86960    0.41340    1.000
    H118     H        0.08380    0.86410    0.35880    1.000
    H119     H        0.07960    0.85130    0.45490    1.000
    C119     C        0.11840    0.95870    0.43000    1.000
    H120     H        0.13730    0.97970    0.38400    1.000
    H121     H        0.14240    0.96380    0.48080    1.000
    C120     C        0.06620    0.00110    0.43810    1.000
    H122     H        0.04180    0.96930    0.46860    1.000
    H123     H        0.04840    0.01140    0.38310    1.000
    C121     C        0.08470    0.14500    0.44920    1.000
    H124     H        0.08750    0.15650    0.39310    1.000
    C122     C        0.08740    0.19630    0.51340    1.000
    H125     H        0.09180    0.25010    0.50890    1.000
    C123     C        0.07610    0.08520    0.56370    1.000
    H126     H        0.07100    0.04490    0.60100    1.000
    C124     C        0.60130    0.86690    0.17700    1.000
    C125     C        0.59650    0.95480    0.17660    1.000
    C126     C        0.55510    0.99150    0.21420    1.000
    H127     H        0.53060    0.96160    0.24230    1.000
    C127     C        0.54880    0.07150    0.21170    1.000
    C128     C        0.50110    0.10790    0.25070    1.000
    C129     C        0.58470    0.11550    0.16910    1.000
    H128     H        0.58080    0.16950    0.16690    1.000
    C130     C        0.62700    0.07960    0.12910    1.000
    C131     C        0.66310    0.12860    0.07770    1.000
    C132     C        0.63270    0.99930    0.13450    1.000
    H129     H        0.66130    0.97500    0.10950    1.000
    C133     C        0.99240    0.58320    0.74580    1.000
    C134     C        0.04360    0.54920    0.71250    1.000
    C135     C        0.08380    0.59640    0.68500    1.000
    H130     H        0.08020    0.65040    0.68800    1.000
    C136     C        0.12980    0.56440    0.65270    1.000
    C137     C        0.17230    0.61710    0.61990    1.000
    C138     C        0.13510    0.48380    0.65010    1.000
    H131     H        0.16560    0.46210    0.62760    1.000
    C139     C        0.09630    0.43500    0.68010    1.000
    C140     C        0.04950    0.46850    0.71110    1.000
    H132     H        0.02250    0.43670    0.73070    1.000
    C141     C        0.10340    0.34820    0.67750    1.000
    C142     C        0.32040    0.62990    0.69230    1.000
    H133     H        0.29480    0.59400    0.70860    1.000
    C143     C        0.36070    0.72480    0.61910    1.000
    H134     H        0.36680    0.76110    0.57780    1.000
    C144     C        0.39740    0.70210    0.68680    1.000
    H135     H        0.43190    0.72350    0.70070    1.000
    Zn10     Zn       0.43142    0.21520    0.30330    1.000
    Zn11     Zn       0.07741    0.19514    0.70304    1.000
    Zn12     Zn       0.74124    0.15931    0.96968    1.000
    N37      N        0.44480    0.19320    0.42640    1.000
    N38      N        0.48330    0.14580    0.54180    1.000
    N39      N        0.62780    0.13980    0.76930    1.000
    N40      N        0.68810    0.17980    0.87240    1.000
    N41      N        0.36360    0.17680    0.23810    1.000
    N42      N        0.30680    0.11990    0.14450    1.000
    N43      N        0.20010    0.11100    0.87230    1.000
    N44      N        0.14400    0.16430    0.77630    1.000
    N45      N        0.78030    0.24550    0.03420    1.000
    N46      N        0.84590    0.32280    0.08250    1.000
    N47      N        0.92270    0.57460    0.01800    1.000
    N48      N        0.91730    0.65640    0.91420    1.000
    O37      O        0.43438    0.32990    0.28580    1.000
    O38      O        0.36151    0.33610    0.35990    1.000
    O39      O        0.53101    0.56680    0.21500    1.000
    O40      O        0.50317    0.68260    0.25380    1.000
    O41      O        0.34670    0.69800    0.43280    1.000
    O42      O        0.29743    0.59250    0.45390    1.000
    O43      O        0.00978    0.15620    0.74850    1.000
    O44      O        0.04426    0.03870    0.73480    1.000
    O45      O        0.82570    0.18600    0.85990    1.000
    O46      O        0.79587    0.08570    0.93020    1.000
    O47      O        0.85554    0.82120    0.85190    1.000
    O48      O        0.93464    0.80820    0.79340    1.000
    C145     C        0.48200    0.14620    0.45850    1.000
    H136     H        0.50490    0.11640    0.42770    1.000
    C146     C        0.41970    0.22390    0.49250    1.000
    H137     H        0.39060    0.25920    0.48870    1.000
    C147     C        0.44410    0.19470    0.56320    1.000
    H138     H        0.43530    0.20610    0.61720    1.000
    C148     C        0.52070    0.09760    0.59740    1.000
    H139     H        0.49930    0.06240    0.62930    1.000
    H140     H        0.54400    0.06640    0.56430    1.000
    C149     C        0.55520    0.14830    0.65520    1.000
    H141     H        0.53080    0.17880    0.68730    1.000
    H142     H        0.57440    0.18480    0.62160    1.000
    C150     C        0.59150    0.11540    0.70750    1.000
    H143     H        0.57030    0.07620    0.73440    1.000
    H144     H        0.61420    0.08630    0.67140    1.000
    C151     C        0.65030    0.12310    0.84760    1.000
    H145     H        0.64140    0.08020    0.87930    1.000
    C152     C        0.70460    0.21210    0.79670    1.000
    H146     H        0.73660    0.24020    0.79020    1.000
    C153     C        0.66330    0.19360    0.73350    1.000
    H147     H        0.66000    0.21280    0.67920    1.000
    C154     C        0.31100    0.19740    0.25080    1.000
    H148     H        0.30110    0.23080    0.29260    1.000
    C155     C        0.35880    0.12920    0.17530    1.000
    H149     H        0.38840    0.10410    0.15380    1.000
    C156     C        0.27560    0.16250    0.19420    1.000
    H150     H        0.23740    0.16670    0.19000    1.000
    C157     C        0.28510    0.07040    0.07470    1.000
    H151     H        0.31530    0.04320    0.05160    1.000
    H152     H        0.26060    0.03150    0.09520    1.000
    C158     C        0.25440    0.11820    0.00690    1.000
    H153     H        0.28050    0.14790    0.97710    1.000
    H154     H        0.23030    0.15490    0.03210    1.000
    C159     C        0.22090    0.06680    0.94630    1.000
    H155     H        0.19010    0.04510    0.97350    1.000
    H156     H        0.24340    0.02370    0.92950    1.000
    C160     C        0.23080    0.13760    0.81320    1.000
    H157     H        0.26880    0.13300    0.81260    1.000
    C161     C        0.19650    0.17250    0.75440    1.000
    H158     H        0.20700    0.19770    0.70700    1.000
    C162     C        0.14880    0.12560    0.84530    1.000
    H159     H        0.11880    0.10940    0.87320    1.000
    C163     C        0.82570    0.28010    0.01960    1.000
    H160     H        0.84230    0.27510    0.96980    1.000
    C164     C        0.77580    0.26090    0.11520    1.000
    H161     H        0.74900    0.24040    0.14690    1.000
    C165     C        0.81570    0.31030    0.14400    1.000
    H162     H        0.82070    0.33130    0.19740    1.000
    C166     C        0.89670    0.36960    0.08660    1.000
    H163     H        0.91620    0.36410    0.14120    1.000
    H164     H        0.92040    0.35130    0.04510    1.000
    C167     C        0.88160    0.45870    0.07000    1.000
    H165     H        0.86270    0.47970    0.11600    1.000
    H166     H        0.85760    0.46380    0.01920    1.000
    C168     C        0.93380    0.50110    0.06190    1.000
    H167     H        0.95820    0.46930    0.03140    1.000
    H168     H        0.95160    0.51140    0.11690    1.000
    C169     C        0.91530    0.64500    0.05080    1.000
    H169     H        0.91250    0.65650    0.10690    1.000
    C170     C        0.91260    0.69630    0.98660    1.000
    H170     H        0.90820    0.75010    0.99110    1.000
    C171     C        0.92390    0.58520    0.93630    1.000
    H171     H        0.92900    0.54490    0.89900    1.000
    C172     C        0.39870    0.36690    0.32300    1.000
    C173     C        0.40350    0.45480    0.32340    1.000
    C174     C        0.44490    0.49150    0.28580    1.000
    H172     H        0.46940    0.46160    0.25770    1.000
    C175     C        0.45120    0.57150    0.28830    1.000
    C176     C        0.49890    0.60790    0.24930    1.000
    C177     C        0.41530    0.61550    0.33090    1.000
    H173     H        0.41920    0.66950    0.33310    1.000
    C178     C        0.37300    0.57960    0.37090    1.000
    C179     C        0.33690    0.62860    0.42230    1.000
    C180     C        0.36730    0.49930    0.36550    1.000
    H174     H        0.33870    0.47500    0.39050    1.000
    C181     C        0.00760    0.08320    0.75420    1.000
    C182     C        0.95640    0.04920    0.78750    1.000
    C183     C        0.91620    0.09640    0.81500    1.000
    H175     H        0.91980    0.15040    0.81200    1.000
    C184     C        0.87020    0.06440    0.84730    1.000
    C185     C        0.82770    0.11710    0.88010    1.000
    C186     C        0.86490    0.98380    0.84990    1.000
    H176     H        0.83440    0.96210    0.87240    1.000
    C187     C        0.90370    0.93500    0.81990    1.000
    C188     C        0.95050    0.96850    0.78890    1.000
    H177     H        0.97750    0.93670    0.76930    1.000
    C189     C        0.89660    0.84820    0.82250    1.000
    C190     C        0.67960    0.12990    0.80770    1.000
    H178     H        0.70520    0.09400    0.79140    1.000
    C191     C        0.63930    0.22480    0.88090    1.000
    H179     H        0.63320    0.26110    0.92220    1.000
    C192     C        0.60260    0.20210    0.81320    1.000
    H180     H        0.56810    0.22350    0.79930    1.000
