# CIF file generated by openbabel 3.1.0, see https://openbabel.org
data_I
_chemical_name_common 'image0'
_cell_length_a 16.7094
_cell_length_b 20.2857
_cell_length_c 17.1936
_cell_angle_alpha 90
_cell_angle_beta 99.178
_cell_angle_gamma 90
_space_group_name_H-M_alt 'P 1'
_space_group_name_Hall 'P 1'
loop_
    _symmetry_equiv_pos_as_xyz
    x,y,z
loop_
    _atom_site_label
    _atom_site_type_symbol
    _atom_site_fract_x
    _atom_site_fract_y
    _atom_site_fract_z
    _atom_site_occupancy
    Mn1      Mn       0.96912    0.83354    0.24752    1.000
    Mn2      Mn       0.86416    0.87503    0.05289    1.000
    Mn3      Mn       0.08766    0.85221    0.44303    1.000
    S1       S        0.45205    0.72510    0.22902    1.000
    S2       S        0.10693    0.51409    0.95779    1.000
    S3       S        0.04270    0.43195    0.34433    1.000
    O1       O        0.01490    0.75680    0.32530    1.000
    O2       O        0.56840    0.41770    0.32400    1.000
    O3       O        0.98680    0.76861    0.15340    1.000
    O4       O        0.40950    0.36850    0.25430    1.000
    O5       O        0.84290    0.80712    0.24341    1.000
    O6       O        0.46260    0.61077    0.85970    1.000
    O7       O        0.79890    0.81290    0.11450    1.000
    O8       O        0.94760    0.80423    0.03020    1.000
    O9       O        0.55110    0.45600    0.43920    1.000
    O10      O        0.34140    0.38620    0.13410    1.000
    O11      O        0.08120    0.75110    0.44570    1.000
    O12      O        0.49290    0.60000    0.98730    1.000
    O13      O        0.42640    0.76500    0.28950    1.000
    O14      O        0.40330    0.72184    0.15320    1.000
    O15      O        0.06190    0.50031    0.88230    1.000
    O16      O        0.11010    0.46704    0.01980    1.000
    O17      O        0.05030    0.40166    0.41980    1.000
    O18      O        0.97590    0.41598    0.28480    1.000
    C1       C        0.78880    0.80330    0.18420    1.000
    C2       C        0.70550    0.78410    0.19690    1.000
    C3       C        0.68550    0.77680    0.27200    1.000
    H1       H        0.72510    0.78330    0.31590    1.000
    C4       C        0.60800    0.75990    0.28220    1.000
    H2       H        0.59460    0.75570    0.33250    1.000
    C5       C        0.55060    0.74940    0.21640    1.000
    C6       C        0.56900    0.75700    0.14130    1.000
    H3       H        0.52950    0.75000    0.09750    1.000
    C7       C        0.64590    0.77490    0.13210    1.000
    H4       H        0.65820    0.78110    0.08170    1.000
    C8       C        0.46720    0.64480    0.26650    1.000
    C9       C        0.47020    0.63470    0.34700    1.000
    H5       H        0.45910    0.66900    0.37960    1.000
    C10      C        0.48980    0.57320    0.37710    1.000
    H6       H        0.49100    0.56530    0.43060    1.000
    C11      C        0.50780    0.52290    0.32860    1.000
    C12      C        0.50130    0.53290    0.24790    1.000
    H7       H        0.51080    0.49830    0.21530    1.000
    C13      C        0.48060    0.59400    0.21630    1.000
    H8       H        0.47580    0.60100    0.16230    1.000
    C14      C        0.54210    0.46110    0.36550    1.000
    C15      C        0.98070    0.76370    0.07990    1.000
    C16      C        0.01460    0.70210    0.04840    1.000
    C17      C        0.00390    0.69070    0.96860    1.000
    H9       H        0.97700    0.72160    0.93400    1.000
    C18      C        0.03290    0.63330    0.93940    1.000
    H10      H        0.02610    0.62530    0.88550    1.000
    C19      C        0.07220    0.58830    0.99250    1.000
    C20      C        0.08260    0.59990    0.07220    1.000
    H11      H        0.10920    0.56890    0.10710    1.000
    C21      C        0.05400    0.65700    0.10040    1.000
    H12      H        0.06130    0.66510    0.15430    1.000
    C22      C        0.20690    0.53270    0.94520    1.000
    C23      C        0.22140    0.56090    0.87610    1.000
    H13      H        0.17890    0.56750    0.83490    1.000
    C24      C        0.29900    0.57960    0.86810    1.000
    H14      H        0.30930    0.59830    0.82130    1.000
    C25      C        0.36070    0.57010    0.92990    1.000
    C26      C        0.34560    0.54010    0.99870    1.000
    H15      H        0.38810    0.53270    0.03980    1.000
    C27      C        0.26870    0.52120    0.00650    1.000
    H16      H        0.25840    0.50100    0.05240    1.000
    C28      C        0.44370    0.59490    0.92450    1.000
    C29      C        0.04710    0.72520    0.38250    1.000
    C30      C        0.04690    0.65220    0.37540    1.000
    C31      C        0.01730    0.62420    0.30320    1.000
    H17      H        0.99780    0.65110    0.26070    1.000
    C32      C        0.01650    0.55740    0.29380    1.000
    H18      H        0.99700    0.53870    0.24500    1.000
    C33      C        0.04470    0.51820    0.35730    1.000
    C34      C        0.07250    0.54450    0.42880    1.000
    H19      H        0.09010    0.51720    0.47160    1.000
    C35      C        0.07440    0.61210    0.43760    1.000
    H20      H        0.09450    0.63050    0.48630    1.000
    C36      C        0.13130    0.41640    0.30400    1.000
    C37      C        0.13080    0.42550    0.22440    1.000
    H21      H        0.08390    0.43930    0.19200    1.000
    C38      C        0.20100    0.41370    0.19340    1.000
    H22      H        0.20110    0.41870    0.13960    1.000
    C39      C        0.27080    0.39480    0.24200    1.000
    C40      C        0.27000    0.38520    0.32150    1.000
    H23      H        0.31690    0.37140    0.35400    1.000
    C41      C        0.19990    0.39590    0.35290    1.000
    H24      H        0.19930    0.38930    0.40630    1.000
    C42      C        0.34720    0.38230    0.20760    1.000
    Mn4      Mn       0.53088    0.33354    0.25248    1.000
    Mn5      Mn       0.63584    0.37503    0.44711    1.000
    Mn6      Mn       0.41234    0.35221    0.05697    1.000
    S4       S        0.04795    0.22510    0.27098    1.000
    S5       S        0.39307    0.01409    0.54221    1.000
    S6       S        0.45730    0.93195    0.15567    1.000
    O19      O        0.48510    0.25680    0.17470    1.000
    O20      O        0.93160    0.91770    0.17600    1.000
    O21      O        0.51320    0.26861    0.34660    1.000
    O22      O        0.09050    0.86850    0.24570    1.000
    O23      O        0.65710    0.30712    0.25659    1.000
    O24      O        0.03740    0.11077    0.64030    1.000
    O25      O        0.70110    0.31290    0.38550    1.000
    O26      O        0.55240    0.30423    0.46980    1.000
    O27      O        0.94890    0.95600    0.06080    1.000
    O28      O        0.15860    0.88620    0.36590    1.000
    O29      O        0.41880    0.25110    0.05430    1.000
    O30      O        0.00710    0.10000    0.51270    1.000
    O31      O        0.07360    0.26500    0.21050    1.000
    O32      O        0.09670    0.22184    0.34680    1.000
    O33      O        0.43810    0.00031    0.61770    1.000
    O34      O        0.38990    0.96704    0.48020    1.000
    O35      O        0.44970    0.90166    0.08020    1.000
    O36      O        0.52410    0.91598    0.21520    1.000
    C43      C        0.71120    0.30330    0.31580    1.000
    C44      C        0.79450    0.28410    0.30310    1.000
    C45      C        0.81450    0.27680    0.22800    1.000
    H25      H        0.77490    0.28330    0.18410    1.000
    C46      C        0.89200    0.25990    0.21780    1.000
    H26      H        0.90540    0.25570    0.16750    1.000
    C47      C        0.94940    0.24940    0.28360    1.000
    C48      C        0.93100    0.25700    0.35870    1.000
    H27      H        0.97050    0.25000    0.40250    1.000
    C49      C        0.85410    0.27490    0.36790    1.000
    H28      H        0.84180    0.28110    0.41830    1.000
    C50      C        0.03280    0.14480    0.23350    1.000
    C51      C        0.02980    0.13470    0.15300    1.000
    H29      H        0.04090    0.16900    0.12040    1.000
    C52      C        0.01020    0.07320    0.12290    1.000
    H30      H        0.00900    0.06530    0.06940    1.000
    C53      C        0.99220    0.02290    0.17140    1.000
    C54      C        0.99870    0.03290    0.25210    1.000
    H31      H        0.98920    0.99830    0.28470    1.000
    C55      C        0.01940    0.09400    0.28370    1.000
    H32      H        0.02420    0.10100    0.33770    1.000
    C56      C        0.95790    0.96110    0.13450    1.000
    C57      C        0.51930    0.26370    0.42010    1.000
    C58      C        0.48540    0.20210    0.45160    1.000
    C59      C        0.49610    0.19070    0.53140    1.000
    H33      H        0.52300    0.22160    0.56600    1.000
    C60      C        0.46710    0.13330    0.56060    1.000
    H34      H        0.47390    0.12530    0.61450    1.000
    C61      C        0.42780    0.08830    0.50750    1.000
    C62      C        0.41740    0.09990    0.42780    1.000
    H35      H        0.39080    0.06890    0.39290    1.000
    C63      C        0.44600    0.15700    0.39960    1.000
    H36      H        0.43870    0.16510    0.34570    1.000
    C64      C        0.29310    0.03270    0.55480    1.000
    C65      C        0.27860    0.06090    0.62390    1.000
    H37      H        0.32110    0.06750    0.66510    1.000
    C66      C        0.20100    0.07960    0.63190    1.000
    H38      H        0.19070    0.09830    0.67870    1.000
    C67      C        0.13930    0.07010    0.57010    1.000
    C68      C        0.15440    0.04010    0.50130    1.000
    H39      H        0.11190    0.03270    0.46020    1.000
    C69      C        0.23130    0.02120    0.49350    1.000
    H40      H        0.24160    0.00100    0.44760    1.000
    C70      C        0.05630    0.09490    0.57550    1.000
    C71      C        0.45290    0.22520    0.11750    1.000
    C72      C        0.45310    0.15220    0.12460    1.000
    C73      C        0.48270    0.12420    0.19680    1.000
    H41      H        0.50220    0.15110    0.23930    1.000
    C74      C        0.48350    0.05740    0.20620    1.000
    H42      H        0.50300    0.03870    0.25500    1.000
    C75      C        0.45530    0.01820    0.14270    1.000
    C76      C        0.42750    0.04450    0.07120    1.000
    H43      H        0.40990    0.01720    0.02840    1.000
    C77      C        0.42560    0.11210    0.06240    1.000
    H44      H        0.40550    0.13050    0.01370    1.000
    C78      C        0.36870    0.91640    0.19600    1.000
    C79      C        0.36920    0.92550    0.27560    1.000
    H45      H        0.41610    0.93930    0.30800    1.000
    C80      C        0.29900    0.91370    0.30660    1.000
    H46      H        0.29890    0.91870    0.36040    1.000
    C81      C        0.22920    0.89480    0.25800    1.000
    C82      C        0.23000    0.88520    0.17850    1.000
    H47      H        0.18310    0.87140    0.14600    1.000
    C83      C        0.30010    0.89590    0.14710    1.000
    H48      H        0.30070    0.88930    0.09370    1.000
    C84      C        0.15280    0.88230    0.29240    1.000
    Mn7      Mn       0.03088    0.16646    0.75248    1.000
    Mn8      Mn       0.13584    0.12497    0.94711    1.000
    Mn9      Mn       0.91234    0.14779    0.55697    1.000
    S7       S        0.54795    0.27490    0.77098    1.000
    S8       S        0.89307    0.48591    0.04221    1.000
    S9       S        0.95730    0.56805    0.65567    1.000
    O37      O        0.98510    0.24320    0.67470    1.000
    O38      O        0.43160    0.58230    0.67600    1.000
    O39      O        0.01320    0.23139    0.84660    1.000
    O40      O        0.59050    0.63150    0.74570    1.000
    O41      O        0.15710    0.19288    0.75659    1.000
    O42      O        0.53740    0.38923    0.14030    1.000
    O43      O        0.20110    0.18710    0.88550    1.000
    O44      O        0.05240    0.19577    0.96980    1.000
    O45      O        0.44890    0.54400    0.56080    1.000
    O46      O        0.65860    0.61380    0.86590    1.000
    O47      O        0.91880    0.24890    0.55430    1.000
    O48      O        0.50710    0.40000    0.01270    1.000
    O49      O        0.57360    0.23500    0.71050    1.000
    O50      O        0.59670    0.27816    0.84680    1.000
    O51      O        0.93810    0.49969    0.11770    1.000
    O52      O        0.88990    0.53296    0.98020    1.000
    O53      O        0.94970    0.59834    0.58020    1.000
    O54      O        0.02410    0.58402    0.71520    1.000
    C85      C        0.21120    0.19670    0.81580    1.000
    C86      C        0.29450    0.21590    0.80310    1.000
    C87      C        0.31450    0.22320    0.72800    1.000
    H49      H        0.27490    0.21670    0.68410    1.000
    C88      C        0.39200    0.24010    0.71780    1.000
    H50      H        0.40540    0.24430    0.66750    1.000
    C89      C        0.44940    0.25060    0.78360    1.000
    C90      C        0.43100    0.24300    0.85870    1.000
    H51      H        0.47050    0.25000    0.90250    1.000
    C91      C        0.35410    0.22510    0.86790    1.000
    H52      H        0.34180    0.21890    0.91830    1.000
    C92      C        0.53280    0.35520    0.73350    1.000
    C93      C        0.52980    0.36530    0.65300    1.000
    H53      H        0.54090    0.33100    0.62040    1.000
    C94      C        0.51020    0.42680    0.62290    1.000
    H54      H        0.50900    0.43470    0.56940    1.000
    C95      C        0.49220    0.47710    0.67140    1.000
    C96      C        0.49870    0.46710    0.75210    1.000
    H55      H        0.48920    0.50170    0.78470    1.000
    C97      C        0.51940    0.40600    0.78370    1.000
    H56      H        0.52420    0.39900    0.83770    1.000
    C98      C        0.45790    0.53890    0.63450    1.000
    C99      C        0.01930    0.23630    0.92010    1.000
    C100     C        0.98540    0.29790    0.95160    1.000
    C101     C        0.99610    0.30930    0.03140    1.000
    H57      H        0.02300    0.27840    0.06600    1.000
    C102     C        0.96710    0.36670    0.06060    1.000
    H58      H        0.97390    0.37470    0.11450    1.000
    C103     C        0.92780    0.41170    0.00750    1.000
    C104     C        0.91740    0.40010    0.92780    1.000
    H59      H        0.89080    0.43110    0.89290    1.000
    C105     C        0.94600    0.34300    0.89960    1.000
    H60      H        0.93870    0.33490    0.84570    1.000
    C106     C        0.79310    0.46730    0.05480    1.000
    C107     C        0.77860    0.43910    0.12390    1.000
    H61      H        0.82110    0.43250    0.16510    1.000
    C108     C        0.70100    0.42040    0.13190    1.000
    H62      H        0.69070    0.40170    0.17870    1.000
    C109     C        0.63930    0.42990    0.07010    1.000
    C110     C        0.65440    0.45990    0.00130    1.000
    H63      H        0.61190    0.46730    0.96020    1.000
    C111     C        0.73130    0.47880    0.99350    1.000
    H64      H        0.74160    0.49900    0.94760    1.000
    C112     C        0.55630    0.40510    0.07550    1.000
    C113     C        0.95290    0.27480    0.61750    1.000
    C114     C        0.95310    0.34780    0.62460    1.000
    C115     C        0.98270    0.37580    0.69680    1.000
    H65      H        0.00220    0.34890    0.73930    1.000
    C116     C        0.98350    0.44260    0.70620    1.000
    H66      H        0.00300    0.46130    0.75500    1.000
    C117     C        0.95530    0.48180    0.64270    1.000
    C118     C        0.92750    0.45550    0.57120    1.000
    H67      H        0.90990    0.48280    0.52840    1.000
    C119     C        0.92560    0.38790    0.56240    1.000
    H68      H        0.90550    0.36950    0.51370    1.000
    C120     C        0.86870    0.58360    0.69600    1.000
    C121     C        0.86920    0.57450    0.77560    1.000
    H69      H        0.91610    0.56070    0.80800    1.000
    C122     C        0.79900    0.58630    0.80660    1.000
    H70      H        0.79890    0.58130    0.86040    1.000
    C123     C        0.72920    0.60520    0.75800    1.000
    C124     C        0.73000    0.61480    0.67850    1.000
    H71      H        0.68310    0.62860    0.64600    1.000
    C125     C        0.80010    0.60410    0.64710    1.000
    H72      H        0.80070    0.61070    0.59370    1.000
    C126     C        0.65280    0.61770    0.79240    1.000
    Mn10     Mn       0.46912    0.66646    0.74752    1.000
    Mn11     Mn       0.36416    0.62497    0.55289    1.000
    Mn12     Mn       0.58766    0.64779    0.94303    1.000
    S10      S        0.95205    0.77490    0.72902    1.000
    S11      S        0.60693    0.98591    0.45779    1.000
    S12      S        0.54270    0.06805    0.84433    1.000
    O55      O        0.51490    0.74320    0.82530    1.000
    O56      O        0.06840    0.08230    0.82400    1.000
    O57      O        0.48680    0.73139    0.65340    1.000
    O58      O        0.90950    0.13150    0.75430    1.000
    O59      O        0.34290    0.69288    0.74341    1.000
    O60      O        0.96260    0.88923    0.35970    1.000
    O61      O        0.29890    0.68710    0.61450    1.000
    O62      O        0.44760    0.69577    0.53020    1.000
    O63      O        0.05110    0.04400    0.93920    1.000
    O64      O        0.84140    0.11380    0.63410    1.000
    O65      O        0.58120    0.74890    0.94570    1.000
    O66      O        0.99290    0.90000    0.48730    1.000
    O67      O        0.92640    0.73500    0.78950    1.000
    O68      O        0.90330    0.77816    0.65320    1.000
    O69      O        0.56190    0.99969    0.38230    1.000
    O70      O        0.61010    0.03296    0.51980    1.000
    O71      O        0.55030    0.09834    0.91980    1.000
    O72      O        0.47590    0.08402    0.78480    1.000
    C127     C        0.28880    0.69670    0.68420    1.000
    C128     C        0.20550    0.71590    0.69690    1.000
    C129     C        0.18550    0.72320    0.77200    1.000
    H73      H        0.22510    0.71670    0.81590    1.000
    C130     C        0.10800    0.74010    0.78220    1.000
    H74      H        0.09460    0.74430    0.83250    1.000
    C131     C        0.05060    0.75060    0.71640    1.000
    C132     C        0.06900    0.74300    0.64130    1.000
    H75      H        0.02950    0.75000    0.59750    1.000
    C133     C        0.14590    0.72510    0.63210    1.000
    H76      H        0.15820    0.71890    0.58170    1.000
    C134     C        0.96720    0.85520    0.76650    1.000
    C135     C        0.97020    0.86530    0.84700    1.000
    H77      H        0.95910    0.83100    0.87960    1.000
    C136     C        0.98980    0.92680    0.87710    1.000
    H78      H        0.99100    0.93470    0.93060    1.000
    C137     C        0.00780    0.97710    0.82860    1.000
    C138     C        0.00130    0.96710    0.74790    1.000
    H79      H        0.01080    0.00170    0.71530    1.000
    C139     C        0.98060    0.90600    0.71630    1.000
    H80      H        0.97580    0.89900    0.66230    1.000
    C140     C        0.04210    0.03890    0.86550    1.000
    C141     C        0.48070    0.73630    0.57990    1.000
    C142     C        0.51460    0.79790    0.54840    1.000
    C143     C        0.50390    0.80930    0.46860    1.000
    H81      H        0.47700    0.77840    0.43400    1.000
    C144     C        0.53290    0.86670    0.43940    1.000
    H82      H        0.52610    0.87470    0.38550    1.000
    C145     C        0.57220    0.91170    0.49250    1.000
    C146     C        0.58260    0.90010    0.57220    1.000
    H83      H        0.60920    0.93110    0.60710    1.000
    C147     C        0.55400    0.84300    0.60040    1.000
    H84      H        0.56130    0.83490    0.65430    1.000
    C148     C        0.70690    0.96730    0.44520    1.000
    C149     C        0.72140    0.93910    0.37610    1.000
    H85      H        0.67890    0.93250    0.33490    1.000
    C150     C        0.79900    0.92040    0.36810    1.000
    H86      H        0.80930    0.90170    0.32130    1.000
    C151     C        0.86070    0.92990    0.42990    1.000
    C152     C        0.84560    0.95990    0.49870    1.000
    H87      H        0.88810    0.96730    0.53980    1.000
    C153     C        0.76870    0.97880    0.50650    1.000
    H88      H        0.75840    0.99900    0.55240    1.000
    C154     C        0.94370    0.90510    0.42450    1.000
    C155     C        0.54710    0.77480    0.88250    1.000
    C156     C        0.54690    0.84780    0.87540    1.000
    C157     C        0.51730    0.87580    0.80320    1.000
    H89      H        0.49780    0.84890    0.76070    1.000
    C158     C        0.51650    0.94260    0.79380    1.000
    H90      H        0.49700    0.96130    0.74500    1.000
    C159     C        0.54470    0.98180    0.85730    1.000
    C160     C        0.57250    0.95550    0.92880    1.000
    H91      H        0.59010    0.98280    0.97160    1.000
    C161     C        0.57440    0.88790    0.93760    1.000
    H92      H        0.59450    0.86950    0.98630    1.000
    C162     C        0.63130    0.08360    0.80400    1.000
    C163     C        0.63080    0.07450    0.72440    1.000
    H93      H        0.58390    0.06070    0.69200    1.000
    C164     C        0.70100    0.08630    0.69340    1.000
    H94      H        0.70110    0.08130    0.63960    1.000
    C165     C        0.77080    0.10520    0.74200    1.000
    C166     C        0.77000    0.11480    0.82150    1.000
    H95      H        0.81690    0.12860    0.85400    1.000
    C167     C        0.69990    0.10410    0.85290    1.000
    H96      H        0.69930    0.11070    0.90630    1.000
    C168     C        0.84720    0.11770    0.70760    1.000
