# CIF file generated by openbabel 3.1.0, see https://openbabel.org
data_I
_chemical_name_common 'image0'
_cell_length_a 6.6287
_cell_length_b 16.7224
_cell_length_c 12.8406
_cell_angle_alpha 90
_cell_angle_beta 90
_cell_angle_gamma 90
_space_group_name_H-M_alt 'P 1'
_space_group_name_Hall 'P 1'
loop_
    _symmetry_equiv_pos_as_xyz
    x,y,z
loop_
    _atom_site_label
    _atom_site_type_symbol
    _atom_site_fract_x
    _atom_site_fract_y
    _atom_site_fract_z
    _atom_site_occupancy
    O1       O        0.16524    0.16847    0.84274    1.000
    C1       C        0.80910    0.03582    0.96770    1.000
    O2       O        0.66524    0.66847    0.34274    1.000
    C2       C        0.30910    0.53582    0.46770    1.000
    O3       O        0.83476    0.33153    0.84274    1.000
    C3       C        0.19090    0.46418    0.96770    1.000
    O4       O        0.33476    0.83153    0.34274    1.000
    C4       C        0.69090    0.96418    0.46770    1.000
    O5       O        0.83476    0.66847    0.15726    1.000
    C5       C        0.19090    0.53582    0.03230    1.000
    O6       O        0.33476    0.16847    0.65726    1.000
    C6       C        0.69090    0.03582    0.53230    1.000
    O7       O        0.16524    0.83153    0.15726    1.000
    C7       C        0.80910    0.96418    0.03230    1.000
    O8       O        0.66524    0.33153    0.65726    1.000
    C8       C        0.30910    0.46418    0.53230    1.000
    O9       O        0.83476    0.83153    0.15726    1.000
    C9       C        0.19090    0.96418    0.03230    1.000
    O10      O        0.33476    0.33153    0.65726    1.000
    C10      C        0.69090    0.46418    0.53230    1.000
    O11      O        0.16524    0.66847    0.15726    1.000
    C11      C        0.80910    0.53582    0.03230    1.000
    O12      O        0.66524    0.16847    0.65726    1.000
    C12      C        0.30910    0.03582    0.53230    1.000
    O13      O        0.16524    0.33153    0.84274    1.000
    C13      C        0.80910    0.46418    0.96770    1.000
    O14      O        0.66524    0.83153    0.34274    1.000
    C14      C        0.30910    0.96418    0.46770    1.000
    O15      O        0.83476    0.16847    0.84274    1.000
    C15      C        0.19090    0.03582    0.96770    1.000
    O16      O        0.33476    0.66847    0.34274    1.000
    C16      C        0.69090    0.53582    0.46770    1.000
    Al1      Al       0.25000    0.25000    0.75000    1.000
    Al2      Al       0.75000    0.25000    0.75000    1.000
    Al3      Al       0.75000    0.75000    0.25000    1.000
    Al4      Al       0.25000    0.75000    0.25000    1.000
    O17      O        0.00000    0.25000    0.68540    1.000
    O18      O        0.50000    0.75000    0.18540    1.000
    O19      O        0.00000    0.75000    0.31460    1.000
    O20      O        0.50000    0.25000    0.81460    1.000
    C17      C        0.00000    0.06210    0.94740    1.000
    C18      C        0.00000    0.13630    0.87250    1.000
    C19      C        0.50000    0.56210    0.44740    1.000
    C20      C        0.50000    0.63630    0.37250    1.000
    C21      C        0.00000    0.43790    0.94740    1.000
    C22      C        0.00000    0.36370    0.87250    1.000
    C23      C        0.50000    0.93790    0.44740    1.000
    C24      C        0.50000    0.86370    0.37250    1.000
    C25      C        0.00000    0.56210    0.05260    1.000
    C26      C        0.00000    0.63630    0.12750    1.000
    C27      C        0.50000    0.06210    0.55260    1.000
    C28      C        0.50000    0.13630    0.62750    1.000
    C29      C        0.00000    0.93790    0.05260    1.000
    C30      C        0.00000    0.86370    0.12750    1.000
    C31      C        0.50000    0.43790    0.55260    1.000
    C32      C        0.50000    0.36370    0.62750    1.000
