# CIF file generated by openbabel 3.1.0, see https://openbabel.org
data_I
_chemical_name_common 'image0'
_cell_length_a 17.7003
_cell_length_b 17.7003
_cell_length_c 13.9208
_cell_angle_alpha 90
_cell_angle_beta 90
_cell_angle_gamma 120
_space_group_name_H-M_alt 'P 1'
_space_group_name_Hall 'P 1'
loop_
    _symmetry_equiv_pos_as_xyz
    x,y,z
loop_
    _atom_site_label
    _atom_site_type_symbol
    _atom_site_fract_x
    _atom_site_fract_y
    _atom_site_fract_z
    _atom_site_occupancy
    Cu1      Cu       0.87458    0.43353    0.63546    1.000
    Cu2      Cu       0.87357    0.42928    0.39020    1.000
    O1       O        0.84350    0.37490    0.51150    1.000
    H1       H        0.83900    0.32600    0.51100    1.000
    O2       O        0.22840    0.54800    0.14050    1.000
    O3       O        0.29610    0.49560    0.22850    1.000
    O4       O        0.01150    0.56050    0.15940    1.000
    O5       O        0.77380    0.45050    0.38650    1.000
    O6       O        0.99020    0.43640    0.36800    1.000
    O7       O        0.70560    0.50270    0.29710    1.000
    N1       N        0.90350    0.49950    0.27650    1.000
    N2       N        0.09790    0.50030    0.25180    1.000
    C1       C        0.23370    0.50930    0.21280    1.000
    C2       C        0.15560    0.46950    0.28420    1.000
    H2       H        0.17550    0.48820    0.35170    1.000
    C3       C        0.10910    0.36340    0.27250    1.000
    H3       H        0.05980    0.33500    0.31700    1.000
    H4       H        0.15160    0.34490    0.28720    1.000
    H5       H        0.08830    0.34690    0.20650    1.000
    C4       C        0.97560    0.51830    0.23500    1.000
    C5       C        0.02370    0.48140    0.29030    1.000
    C6       C        0.76770    0.49160    0.31110    1.000
    C7       C        0.83850    0.51880    0.23610    1.000
    H6       H        0.86540    0.58240    0.22120    1.000
    C8       C        0.79560    0.46060    0.14070    1.000
    H7       H        0.83970    0.47990    0.08980    1.000
    H8       H        0.74680    0.46770    0.11920    1.000
    H9       H        0.77440    0.39910    0.15540    1.000
    Cu3      Cu       0.56647    0.44105    0.63546    1.000
    Cu4      Cu       0.57072    0.44429    0.39020    1.000
    O8       O        0.62510    0.46860    0.51150    1.000
    H10      H        0.67400    0.51300    0.51100    1.000
    O9       O        0.45200    0.68040    0.14050    1.000
    O10      O        0.50440    0.80050    0.22850    1.000
    O11      O        0.43950    0.45100    0.15940    1.000
    O12      O        0.54950    0.32330    0.38650    1.000
    O13      O        0.56360    0.55380    0.36800    1.000
    O14      O        0.49730    0.20290    0.29710    1.000
    N3       N        0.50050    0.40400    0.27650    1.000
    N4       N        0.49970    0.59760    0.25180    1.000
    C9       C        0.49070    0.72440    0.21280    1.000
    C10      C        0.53050    0.68610    0.28420    1.000
    H11      H        0.51180    0.68730    0.35170    1.000
    C11      C        0.63660    0.74570    0.27250    1.000
    H12      H        0.66500    0.72480    0.31700    1.000
    H13      H        0.65510    0.80670    0.28720    1.000
    H14      H        0.65310    0.74140    0.20650    1.000
    C12      C        0.48170    0.45730    0.23500    1.000
    C13      C        0.51860    0.54230    0.29030    1.000
    C14      C        0.50840    0.27610    0.31110    1.000
    C15      C        0.48120    0.31970    0.23610    1.000
    H15      H        0.41760    0.28300    0.22120    1.000
    C16      C        0.53940    0.33500    0.14070    1.000
    H16      H        0.52010    0.35980    0.08980    1.000
    H17      H        0.53230    0.27910    0.11920    1.000
    H18      H        0.60090    0.37530    0.15540    1.000
    Cu5      Cu       0.55895    0.12542    0.63546    1.000
    Cu6      Cu       0.55571    0.12643    0.39020    1.000
    O15      O        0.53140    0.15650    0.51150    1.000
    H19      H        0.48700    0.16100    0.51100    1.000
    O16      O        0.31960    0.77160    0.14050    1.000
    O17      O        0.19950    0.70390    0.22850    1.000
    O18      O        0.54900    0.98850    0.15940    1.000
    O19      O        0.67670    0.22620    0.38650    1.000
    O20      O        0.44620    0.00980    0.36800    1.000
    O21      O        0.79710    0.29440    0.29710    1.000
    N5       N        0.59600    0.09650    0.27650    1.000
    N6       N        0.40240    0.90210    0.25180    1.000
    C17      C        0.27560    0.76630    0.21280    1.000
    C18      C        0.31390    0.84440    0.28420    1.000
    H20      H        0.31270    0.82450    0.35170    1.000
    C19      C        0.25430    0.89090    0.27250    1.000
    H21      H        0.27520    0.94020    0.31700    1.000
    H22      H        0.19330    0.84840    0.28720    1.000
    H23      H        0.25860    0.91170    0.20650    1.000
    C20      C        0.54270    0.02440    0.23500    1.000
    C21      C        0.45770    0.97630    0.29030    1.000
    C22      C        0.72390    0.23230    0.31110    1.000
    C23      C        0.68030    0.16150    0.23610    1.000
    H24      H        0.71700    0.13460    0.22120    1.000
    C24      C        0.66500    0.20440    0.14070    1.000
    H25      H        0.64020    0.16030    0.08980    1.000
    H26      H        0.72090    0.25320    0.11920    1.000
    H27      H        0.62470    0.22560    0.15540    1.000
    Cu7      Cu       0.12542    0.56647    0.13546    1.000
    Cu8      Cu       0.12643    0.57072    0.89020    1.000
    O22      O        0.15650    0.62510    0.01150    1.000
    H28      H        0.16100    0.67400    0.01100    1.000
    O23      O        0.77160    0.45200    0.64050    1.000
    O24      O        0.70390    0.50440    0.72850    1.000
    O25      O        0.98850    0.43950    0.65940    1.000
    O26      O        0.22620    0.54950    0.88650    1.000
    O27      O        0.00980    0.56360    0.86800    1.000
    O28      O        0.29440    0.49730    0.79710    1.000
    N7       N        0.09650    0.50050    0.77650    1.000
    N8       N        0.90210    0.49970    0.75180    1.000
    C25      C        0.76630    0.49070    0.71280    1.000
    C26      C        0.84440    0.53050    0.78420    1.000
    H29      H        0.82450    0.51180    0.85170    1.000
    C27      C        0.89090    0.63660    0.77250    1.000
    H30      H        0.94020    0.66500    0.81700    1.000
    H31      H        0.84840    0.65510    0.78720    1.000
    H32      H        0.91170    0.65310    0.70650    1.000
    C28      C        0.02440    0.48170    0.73500    1.000
    C29      C        0.97630    0.51860    0.79030    1.000
    C30      C        0.23230    0.50840    0.81110    1.000
    C31      C        0.16150    0.48120    0.73610    1.000
    H33      H        0.13460    0.41760    0.72120    1.000
    C32      C        0.20440    0.53940    0.64070    1.000
    H34      H        0.16030    0.52010    0.58980    1.000
    H35      H        0.25320    0.53230    0.61920    1.000
    H36      H        0.22560    0.60090    0.65540    1.000
    Cu9      Cu       0.43353    0.55895    0.13546    1.000
    Cu10     Cu       0.42928    0.55571    0.89020    1.000
    O29      O        0.37490    0.53140    0.01150    1.000
    H37      H        0.32600    0.48700    0.01100    1.000
    O30      O        0.54800    0.31960    0.64050    1.000
    O31      O        0.49560    0.19950    0.72850    1.000
    O32      O        0.56050    0.54900    0.65940    1.000
    O33      O        0.45050    0.67670    0.88650    1.000
    O34      O        0.43640    0.44620    0.86800    1.000
    O35      O        0.50270    0.79710    0.79710    1.000
    N9       N        0.49950    0.59600    0.77650    1.000
    N10      N        0.50030    0.40240    0.75180    1.000
    C33      C        0.50930    0.27560    0.71280    1.000
    C34      C        0.46950    0.31390    0.78420    1.000
    H38      H        0.48820    0.31270    0.85170    1.000
    C35      C        0.36340    0.25430    0.77250    1.000
    H39      H        0.33500    0.27520    0.81700    1.000
    H40      H        0.34490    0.19330    0.78720    1.000
    H41      H        0.34690    0.25860    0.70650    1.000
    C36      C        0.51830    0.54270    0.73500    1.000
    C37      C        0.48140    0.45770    0.79030    1.000
    C38      C        0.49160    0.72390    0.81110    1.000
    C39      C        0.51880    0.68030    0.73610    1.000
    H42      H        0.58240    0.71700    0.72120    1.000
    C40      C        0.46060    0.66500    0.64070    1.000
    H43      H        0.47990    0.64020    0.58980    1.000
    H44      H        0.46770    0.72090    0.61920    1.000
    H45      H        0.39910    0.62470    0.65540    1.000
    Cu11     Cu       0.44105    0.87458    0.13546    1.000
    Cu12     Cu       0.44429    0.87357    0.89020    1.000
    O36      O        0.46860    0.84350    0.01150    1.000
    H46      H        0.51300    0.83900    0.01100    1.000
    O37      O        0.68040    0.22840    0.64050    1.000
    O38      O        0.80050    0.29610    0.72850    1.000
    O39      O        0.45100    0.01150    0.65940    1.000
    O40      O        0.32330    0.77380    0.88650    1.000
    O41      O        0.55380    0.99020    0.86800    1.000
    O42      O        0.20290    0.70560    0.79710    1.000
    N11      N        0.40400    0.90350    0.77650    1.000
    N12      N        0.59760    0.09790    0.75180    1.000
    C41      C        0.72440    0.23370    0.71280    1.000
    C42      C        0.68610    0.15560    0.78420    1.000
    H47      H        0.68730    0.17550    0.85170    1.000
    C43      C        0.74570    0.10910    0.77250    1.000
    H48      H        0.72480    0.05980    0.81700    1.000
    H49      H        0.80670    0.15160    0.78720    1.000
    H50      H        0.74140    0.08830    0.70650    1.000
    C44      C        0.45730    0.97560    0.73500    1.000
    C45      C        0.54230    0.02370    0.79030    1.000
    C46      C        0.27610    0.76770    0.81110    1.000
    C47      C        0.31970    0.83850    0.73610    1.000
    H51      H        0.28300    0.86540    0.72120    1.000
    C48      C        0.33500    0.79560    0.64070    1.000
    H52      H        0.35980    0.83970    0.58980    1.000
    H53      H        0.27910    0.74680    0.61920    1.000
    H54      H        0.37530    0.77440    0.65540    1.000
    Ba1      Ba       0.66667    0.33333    0.51377    1.000
    Ba2      Ba       0.33333    0.66667    0.01377    1.000
