# CIF file generated by openbabel 3.1.0, see https://openbabel.org
data_I
_chemical_name_common 'image0'
_cell_length_a 11.084
_cell_length_b 24.944
_cell_length_c 23.284
_cell_angle_alpha 90
_cell_angle_beta 96.974
_cell_angle_gamma 90
_space_group_name_H-M_alt 'P 1'
_space_group_name_Hall 'P 1'
loop_
    _symmetry_equiv_pos_as_xyz
    x,y,z
loop_
    _atom_site_label
    _atom_site_type_symbol
    _atom_site_fract_x
    _atom_site_fract_y
    _atom_site_fract_z
    _atom_site_occupancy
    Ag1      Ag       0.24532    0.87136    0.90730    1.000
    C1       C        0.23340    0.90850    0.77910    1.000
    H1       H        0.26770    0.93870    0.79800    1.000
    C2       C        0.20580    0.90990    0.71840    1.000
    H2       H        0.22270    0.94040    0.69780    1.000
    C3       C        0.15290    0.86530    0.68940    1.000
    C4       C        0.13600    0.81970    0.72180    1.000
    H3       H        0.10370    0.78860    0.70400    1.000
    C5       C        0.16810    0.82160    0.78070    1.000
    H4       H        0.15860    0.79030    0.80150    1.000
    C6       C        0.19680    0.05410    0.51110    1.000
    H5       H        0.22270    0.08460    0.53180    1.000
    C7       C        0.17250    0.00790    0.54100    1.000
    H6       H        0.18050    0.00790    0.58130    1.000
    C8       C        0.13680    0.96240    0.51080    1.000
    C9       C        0.12500    0.96340    0.45180    1.000
    H7       H        0.10250    0.93260    0.43070    1.000
    C10      C        0.14720    0.01220    0.42260    1.000
    H8       H        0.13610    0.01360    0.38230    1.000
    C11      C        0.88210    0.74020    0.42690    1.000
    H9       H        0.85900    0.74180    0.38720    1.000
    C12      C        0.93590    0.78380    0.45510    1.000
    H10      H        0.94940    0.81460    0.43420    1.000
    C13      C        0.97000    0.78260    0.51380    1.000
    C14      C        0.94740    0.73770    0.54310    1.000
    H11      H        0.96700    0.73600    0.58300    1.000
    C15      C        0.89350    0.69350    0.51230    1.000
    H12      H        0.87980    0.66230    0.53260    1.000
    C16      C        0.03130    0.82910    0.54360    1.000
    C17      C        0.11900    0.86680    0.62780    1.000
    C18      C        0.11120    0.91240    0.54210    1.000
    N1       N        0.21180    0.86470    0.81090    1.000
    N2       N        0.18400    0.05580    0.45330    1.000
    N3       N        0.86190    0.69450    0.45620    1.000
    N4       N        0.06160    0.82380    0.60070    1.000
    N5       N        0.14850    0.91110    0.59890    1.000
    N6       N        0.05530    0.87270    0.51280    1.000
    Ag2      Ag       0.74532    0.37136    0.90730    1.000
    C19      C        0.73340    0.40850    0.77910    1.000
    H13      H        0.76770    0.43870    0.79800    1.000
    C20      C        0.70580    0.40990    0.71840    1.000
    H14      H        0.72270    0.44040    0.69780    1.000
    C21      C        0.65290    0.36530    0.68940    1.000
    C22      C        0.63600    0.31970    0.72180    1.000
    H15      H        0.60370    0.28860    0.70400    1.000
    C23      C        0.66810    0.32160    0.78070    1.000
    H16      H        0.65860    0.29030    0.80150    1.000
    C24      C        0.69680    0.55410    0.51110    1.000
    H17      H        0.72270    0.58460    0.53180    1.000
    C25      C        0.67250    0.50790    0.54100    1.000
    H18      H        0.68050    0.50790    0.58130    1.000
    C26      C        0.63680    0.46240    0.51080    1.000
    C27      C        0.62500    0.46340    0.45180    1.000
    H19      H        0.60250    0.43260    0.43070    1.000
    C28      C        0.64720    0.51220    0.42260    1.000
    H20      H        0.63610    0.51360    0.38230    1.000
    C29      C        0.38210    0.24020    0.42690    1.000
    H21      H        0.35900    0.24180    0.38720    1.000
    C30      C        0.43590    0.28380    0.45510    1.000
    H22      H        0.44940    0.31460    0.43420    1.000
    C31      C        0.47000    0.28260    0.51380    1.000
    C32      C        0.44740    0.23770    0.54310    1.000
    H23      H        0.46700    0.23600    0.58300    1.000
    C33      C        0.39350    0.19350    0.51230    1.000
    H24      H        0.37980    0.16230    0.53260    1.000
    C34      C        0.53130    0.32910    0.54360    1.000
    C35      C        0.61900    0.36680    0.62780    1.000
    C36      C        0.61120    0.41240    0.54210    1.000
    N7       N        0.71180    0.36470    0.81090    1.000
    N8       N        0.68400    0.55580    0.45330    1.000
    N9       N        0.36190    0.19450    0.45620    1.000
    N10      N        0.56160    0.32380    0.60070    1.000
    N11      N        0.64850    0.41110    0.59890    1.000
    N12      N        0.55530    0.37270    0.51280    1.000
    Ag3      Ag       0.24532    0.12864    0.40730    1.000
    C37      C        0.23340    0.09150    0.27910    1.000
    H25      H        0.26770    0.06130    0.29800    1.000
    C38      C        0.20580    0.09010    0.21840    1.000
    H26      H        0.22270    0.05960    0.19780    1.000
    C39      C        0.15290    0.13470    0.18940    1.000
    C40      C        0.13600    0.18030    0.22180    1.000
    H27      H        0.10370    0.21140    0.20400    1.000
    C41      C        0.16810    0.17840    0.28070    1.000
    H28      H        0.15860    0.20970    0.30150    1.000
    C42      C        0.19680    0.94590    0.01110    1.000
    H29      H        0.22270    0.91540    0.03180    1.000
    C43      C        0.17250    0.99210    0.04100    1.000
    H30      H        0.18050    0.99210    0.08130    1.000
    C44      C        0.13680    0.03760    0.01080    1.000
    C45      C        0.12500    0.03660    0.95180    1.000
    H31      H        0.10250    0.06740    0.93070    1.000
    C46      C        0.14720    0.98780    0.92260    1.000
    H32      H        0.13610    0.98640    0.88230    1.000
    C47      C        0.88210    0.25980    0.92690    1.000
    H33      H        0.85900    0.25820    0.88720    1.000
    C48      C        0.93590    0.21620    0.95510    1.000
    H34      H        0.94940    0.18540    0.93420    1.000
    C49      C        0.97000    0.21740    0.01380    1.000
    C50      C        0.94740    0.26230    0.04310    1.000
    H35      H        0.96700    0.26400    0.08300    1.000
    C51      C        0.89350    0.30650    0.01230    1.000
    H36      H        0.87980    0.33770    0.03260    1.000
    C52      C        0.03130    0.17090    0.04360    1.000
    C53      C        0.11900    0.13320    0.12780    1.000
    C54      C        0.11120    0.08760    0.04210    1.000
    N13      N        0.21180    0.13530    0.31090    1.000
    N14      N        0.18400    0.94420    0.95330    1.000
    N15      N        0.86190    0.30550    0.95620    1.000
    N16      N        0.06160    0.17620    0.10070    1.000
    N17      N        0.14850    0.08890    0.09890    1.000
    N18      N        0.05530    0.12730    0.01280    1.000
    Ag4      Ag       0.74532    0.62864    0.40730    1.000
    C55      C        0.73340    0.59150    0.27910    1.000
    H37      H        0.76770    0.56130    0.29800    1.000
    C56      C        0.70580    0.59010    0.21840    1.000
    H38      H        0.72270    0.55960    0.19780    1.000
    C57      C        0.65290    0.63470    0.18940    1.000
    C58      C        0.63600    0.68030    0.22180    1.000
    H39      H        0.60370    0.71140    0.20400    1.000
    C59      C        0.66810    0.67840    0.28070    1.000
    H40      H        0.65860    0.70970    0.30150    1.000
    C60      C        0.69680    0.44590    0.01110    1.000
    H41      H        0.72270    0.41540    0.03180    1.000
    C61      C        0.67250    0.49210    0.04100    1.000
    H42      H        0.68050    0.49210    0.08130    1.000
    C62      C        0.63680    0.53760    0.01080    1.000
    C63      C        0.62500    0.53660    0.95180    1.000
    H43      H        0.60250    0.56740    0.93070    1.000
    C64      C        0.64720    0.48780    0.92260    1.000
    H44      H        0.63610    0.48640    0.88230    1.000
    C65      C        0.38210    0.75980    0.92690    1.000
    H45      H        0.35900    0.75820    0.88720    1.000
    C66      C        0.43590    0.71620    0.95510    1.000
    H46      H        0.44940    0.68540    0.93420    1.000
    C67      C        0.47000    0.71740    0.01380    1.000
    C68      C        0.44740    0.76230    0.04310    1.000
    H47      H        0.46700    0.76400    0.08300    1.000
    C69      C        0.39350    0.80650    0.01230    1.000
    H48      H        0.37980    0.83770    0.03260    1.000
    C70      C        0.53130    0.67090    0.04360    1.000
    C71      C        0.61900    0.63320    0.12780    1.000
    C72      C        0.61120    0.58760    0.04210    1.000
    N19      N        0.71180    0.63530    0.31090    1.000
    N20      N        0.68400    0.44420    0.95330    1.000
    N21      N        0.36190    0.80550    0.95620    1.000
    N22      N        0.56160    0.67620    0.10070    1.000
    N23      N        0.64850    0.58890    0.09890    1.000
    N24      N        0.55530    0.62730    0.01280    1.000
    Ag5      Ag       0.91618    0.86186    0.88651    1.000
    C73      C        0.88550    0.90960    0.76030    1.000
    H49      H        0.91950    0.93900    0.78080    1.000
    C74      C        0.85600    0.91530    0.70160    1.000
    H50      H        0.86550    0.94800    0.68350    1.000
    C75      C        0.81160    0.87070    0.67020    1.000
    C76      C        0.79930    0.82370    0.70060    1.000
    H51      H        0.76950    0.79300    0.68100    1.000
    C77      C        0.82990    0.82210    0.75780    1.000
    H52      H        0.82360    0.78950    0.77640    1.000
    C78      C        0.88490    0.06060    0.49270    1.000
    H53      H        0.91890    0.08990    0.51350    1.000
    C79      C        0.85800    0.01360    0.52290    1.000
    H54      H        0.87260    0.01230    0.56300    1.000
    C80      C        0.81010    0.97000    0.49220    1.000
    C81      C        0.78870    0.97320    0.43340    1.000
    H55      H        0.75430    0.94440    0.41190    1.000
    C82      C        0.81870    0.01970    0.40610    1.000
    H56      H        0.80810    0.02060    0.36590    1.000
    C83      C        0.53780    0.75210    0.40510    1.000
    H57      H        0.51120    0.75470    0.36570    1.000
    C84      C        0.59550    0.79560    0.43290    1.000
    H58      H        0.60750    0.82650    0.41200    1.000
    C85      C        0.63470    0.79370    0.49010    1.000
    C86      C        0.61440    0.74570    0.51890    1.000
    H59      H        0.63920    0.74200    0.55830    1.000
    C87      C        0.55620    0.70380    0.48700    1.000
    H60      H        0.54360    0.67200    0.50620    1.000
    C88      C        0.69690    0.83830    0.52290    1.000
    C89      C        0.78190    0.87440    0.60730    1.000
    C90      C        0.78100    0.92100    0.52290    1.000
    N25      N        0.86920    0.86480    0.79030    1.000
    N26      N        0.86280    0.06380    0.43510    1.000
    N27      N        0.51890    0.70650    0.43240    1.000
    N28      N        0.72180    0.83320    0.57920    1.000
    N29      N        0.81400    0.91930    0.58030    1.000
    N30      N        0.72510    0.88150    0.49180    1.000
    Ag6      Ag       0.41618    0.36186    0.88651    1.000
    C91      C        0.38550    0.40960    0.76030    1.000
    H61      H        0.41950    0.43900    0.78080    1.000
    C92      C        0.35600    0.41530    0.70160    1.000
    H62      H        0.36550    0.44800    0.68350    1.000
    C93      C        0.31160    0.37070    0.67020    1.000
    C94      C        0.29930    0.32370    0.70060    1.000
    H63      H        0.26950    0.29300    0.68100    1.000
    C95      C        0.32990    0.32210    0.75780    1.000
    H64      H        0.32360    0.28950    0.77640    1.000
    C96      C        0.38490    0.56060    0.49270    1.000
    H65      H        0.41890    0.58990    0.51350    1.000
    C97      C        0.35800    0.51360    0.52290    1.000
    H66      H        0.37260    0.51230    0.56300    1.000
    C98      C        0.31010    0.47000    0.49220    1.000
    C99      C        0.28870    0.47320    0.43340    1.000
    H67      H        0.25430    0.44440    0.41190    1.000
    C100     C        0.31870    0.51970    0.40610    1.000
    H68      H        0.30810    0.52060    0.36590    1.000
    C101     C        0.03780    0.25210    0.40510    1.000
    H69      H        0.01120    0.25470    0.36570    1.000
    C102     C        0.09550    0.29560    0.43290    1.000
    H70      H        0.10750    0.32650    0.41200    1.000
    C103     C        0.13470    0.29370    0.49010    1.000
    C104     C        0.11440    0.24570    0.51890    1.000
    H71      H        0.13920    0.24200    0.55830    1.000
    C105     C        0.05620    0.20380    0.48700    1.000
    H72      H        0.04360    0.17200    0.50620    1.000
    C106     C        0.19690    0.33830    0.52290    1.000
    C107     C        0.28190    0.37440    0.60730    1.000
    C108     C        0.28100    0.42100    0.52290    1.000
    N31      N        0.36920    0.36480    0.79030    1.000
    N32      N        0.36280    0.56380    0.43510    1.000
    N33      N        0.01890    0.20650    0.43240    1.000
    N34      N        0.22180    0.33320    0.57920    1.000
    N35      N        0.31400    0.41930    0.58030    1.000
    N36      N        0.22510    0.38150    0.49180    1.000
    Ag7      Ag       0.91618    0.13814    0.38651    1.000
    C109     C        0.88550    0.09040    0.26030    1.000
    H73      H        0.91950    0.06100    0.28080    1.000
    C110     C        0.85600    0.08470    0.20160    1.000
    H74      H        0.86550    0.05200    0.18350    1.000
    C111     C        0.81160    0.12930    0.17020    1.000
    C112     C        0.79930    0.17630    0.20060    1.000
    H75      H        0.76950    0.20700    0.18100    1.000
    C113     C        0.82990    0.17790    0.25780    1.000
    H76      H        0.82360    0.21050    0.27640    1.000
    C114     C        0.88490    0.93940    0.99270    1.000
    H77      H        0.91890    0.91010    0.01350    1.000
    C115     C        0.85800    0.98640    0.02290    1.000
    H78      H        0.87260    0.98770    0.06300    1.000
    C116     C        0.81010    0.03000    0.99220    1.000
    C117     C        0.78870    0.02680    0.93340    1.000
    H79      H        0.75430    0.05560    0.91190    1.000
    C118     C        0.81870    0.98030    0.90610    1.000
    H80      H        0.80810    0.97940    0.86590    1.000
    C119     C        0.53780    0.24790    0.90510    1.000
    H81      H        0.51120    0.24530    0.86570    1.000
    C120     C        0.59550    0.20440    0.93290    1.000
    H82      H        0.60750    0.17350    0.91200    1.000
    C121     C        0.63470    0.20630    0.99010    1.000
    C122     C        0.61440    0.25430    0.01890    1.000
    H83      H        0.63920    0.25800    0.05830    1.000
    C123     C        0.55620    0.29620    0.98700    1.000
    H84      H        0.54360    0.32800    0.00620    1.000
    C124     C        0.69690    0.16170    0.02290    1.000
    C125     C        0.78190    0.12560    0.10730    1.000
    C126     C        0.78100    0.07900    0.02290    1.000
    N37      N        0.86920    0.13520    0.29030    1.000
    N38      N        0.86280    0.93620    0.93510    1.000
    N39      N        0.51890    0.29350    0.93240    1.000
    N40      N        0.72180    0.16680    0.07920    1.000
    N41      N        0.81400    0.08070    0.08030    1.000
    N42      N        0.72510    0.11850    0.99180    1.000
    Ag8      Ag       0.41618    0.63814    0.38651    1.000
    C127     C        0.38550    0.59040    0.26030    1.000
    H85      H        0.41950    0.56100    0.28080    1.000
    C128     C        0.35600    0.58470    0.20160    1.000
    H86      H        0.36550    0.55200    0.18350    1.000
    C129     C        0.31160    0.62930    0.17020    1.000
    C130     C        0.29930    0.67630    0.20060    1.000
    H87      H        0.26950    0.70700    0.18100    1.000
    C131     C        0.32990    0.67790    0.25780    1.000
    H88      H        0.32360    0.71050    0.27640    1.000
    C132     C        0.38490    0.43940    0.99270    1.000
    H89      H        0.41890    0.41010    0.01350    1.000
    C133     C        0.35800    0.48640    0.02290    1.000
    H90      H        0.37260    0.48770    0.06300    1.000
    C134     C        0.31010    0.53000    0.99220    1.000
    C135     C        0.28870    0.52680    0.93340    1.000
    H91      H        0.25430    0.55560    0.91190    1.000
    C136     C        0.31870    0.48030    0.90610    1.000
    H92      H        0.30810    0.47940    0.86590    1.000
    C137     C        0.03780    0.74790    0.90510    1.000
    H93      H        0.01120    0.74530    0.86570    1.000
    C138     C        0.09550    0.70440    0.93290    1.000
    H94      H        0.10750    0.67350    0.91200    1.000
    C139     C        0.13470    0.70630    0.99010    1.000
    C140     C        0.11440    0.75430    0.01890    1.000
    H95      H        0.13920    0.75800    0.05830    1.000
    C141     C        0.05620    0.79620    0.98700    1.000
    H96      H        0.04360    0.82800    0.00620    1.000
    C142     C        0.19690    0.66170    0.02290    1.000
    C143     C        0.28190    0.62560    0.10730    1.000
    C144     C        0.28100    0.57900    0.02290    1.000
    N43      N        0.36920    0.63520    0.29030    1.000
    N44      N        0.36280    0.43620    0.93510    1.000
    N45      N        0.01890    0.79350    0.93240    1.000
    N46      N        0.22180    0.66680    0.07920    1.000
    N47      N        0.31400    0.58070    0.08030    1.000
    N48      N        0.22510    0.61850    0.99180    1.000
    Ag9      Ag       0.61941    0.86325    0.94374    1.000
    C145     C        0.53580    0.82440    0.81660    1.000
    H97      H        0.53360    0.79210    0.83650    1.000
    C146     C        0.51080    0.82330    0.75810    1.000
    H98      H        0.49310    0.79110    0.73870    1.000
    C147     C        0.51240    0.87180    0.72730    1.000
    C148     C        0.54180    0.91740    0.75730    1.000
    H99      H        0.54390    0.95000    0.73820    1.000
    C149     C        0.56870    0.91460    0.81740    1.000
    H100     H        0.59160    0.94580    0.83780    1.000
    C150     C        0.59450    0.05860    0.55040    1.000
    H101     H        0.63740    0.08580    0.57100    1.000
    C151     C        0.56870    0.01210    0.57940    1.000
    H102     H        0.59000    0.00910    0.61910    1.000
    C152     C        0.51270    0.97170    0.54910    1.000
    C153     C        0.47860    0.97580    0.49110    1.000
    H103     H        0.44140    0.94770    0.46960    1.000
    C154     C        0.50270    0.02500    0.46580    1.000
    H104     H        0.47710    0.02980    0.42660    1.000
    C155     C        0.24060    0.74960    0.46050    1.000
    H105     H        0.21340    0.75170    0.42120    1.000
    C156     C        0.30200    0.79450    0.48830    1.000
    H106     H        0.32000    0.82430    0.46680    1.000
    C157     C        0.33510    0.79330    0.54900    1.000
    C158     C        0.31050    0.74650    0.57740    1.000
    H107     H        0.33240    0.74290    0.61700    1.000
    C159     C        0.25160    0.70480    0.54490    1.000
    H108     H        0.23260    0.67430    0.56490    1.000
    C160     C        0.39720    0.83820    0.57950    1.000
    C161     C        0.48530    0.87320    0.66390    1.000
    C162     C        0.48310    0.91920    0.58030    1.000
    N49      N        0.56280    0.86810    0.84700    1.000
    N50      N        0.56070    0.06540    0.49520    1.000
    N51      N        0.22100    0.70500    0.48860    1.000
    N52      N        0.42530    0.83230    0.63610    1.000
    N53      N        0.51880    0.91710    0.63670    1.000
    N54      N        0.42250    0.88140    0.54860    1.000
    Ag10     Ag       0.11941    0.36325    0.94374    1.000
    C163     C        0.03580    0.32440    0.81660    1.000
    H109     H        0.03360    0.29210    0.83650    1.000
    C164     C        0.01080    0.32330    0.75810    1.000
    H110     H        0.99310    0.29110    0.73870    1.000
    C165     C        0.01240    0.37180    0.72730    1.000
    C166     C        0.04180    0.41740    0.75730    1.000
    H111     H        0.04390    0.45000    0.73820    1.000
    C167     C        0.06870    0.41460    0.81740    1.000
    H112     H        0.09160    0.44580    0.83780    1.000
    C168     C        0.09450    0.55860    0.55040    1.000
    H113     H        0.13740    0.58580    0.57100    1.000
    C169     C        0.06870    0.51210    0.57940    1.000
    H114     H        0.09000    0.50910    0.61910    1.000
    C170     C        0.01270    0.47170    0.54910    1.000
    C171     C        0.97860    0.47580    0.49110    1.000
    H115     H        0.94140    0.44770    0.46960    1.000
    C172     C        0.00270    0.52500    0.46580    1.000
    H116     H        0.97710    0.52980    0.42660    1.000
    C173     C        0.74060    0.24960    0.46050    1.000
    H117     H        0.71340    0.25170    0.42120    1.000
    C174     C        0.80200    0.29450    0.48830    1.000
    H118     H        0.82000    0.32430    0.46680    1.000
    C175     C        0.83510    0.29330    0.54900    1.000
    C176     C        0.81050    0.24650    0.57740    1.000
    H119     H        0.83240    0.24290    0.61700    1.000
    C177     C        0.75160    0.20480    0.54490    1.000
    H120     H        0.73260    0.17430    0.56490    1.000
    C178     C        0.89720    0.33820    0.57950    1.000
    C179     C        0.98530    0.37320    0.66390    1.000
    C180     C        0.98310    0.41920    0.58030    1.000
    N55      N        0.06280    0.36810    0.84700    1.000
    N56      N        0.06070    0.56540    0.49520    1.000
    N57      N        0.72100    0.20500    0.48860    1.000
    N58      N        0.92530    0.33230    0.63610    1.000
    N59      N        0.01880    0.41710    0.63670    1.000
    N60      N        0.92250    0.38140    0.54860    1.000
    Ag11     Ag       0.61941    0.13675    0.44374    1.000
    C181     C        0.53580    0.17560    0.31660    1.000
    H121     H        0.53360    0.20790    0.33650    1.000
    C182     C        0.51080    0.17670    0.25810    1.000
    H122     H        0.49310    0.20890    0.23870    1.000
    C183     C        0.51240    0.12820    0.22730    1.000
    C184     C        0.54180    0.08260    0.25730    1.000
    H123     H        0.54390    0.05000    0.23820    1.000
    C185     C        0.56870    0.08540    0.31740    1.000
    H124     H        0.59160    0.05420    0.33780    1.000
    C186     C        0.59450    0.94140    0.05040    1.000
    H125     H        0.63740    0.91420    0.07100    1.000
    C187     C        0.56870    0.98790    0.07940    1.000
    H126     H        0.59000    0.99090    0.11910    1.000
    C188     C        0.51270    0.02830    0.04910    1.000
    C189     C        0.47860    0.02420    0.99110    1.000
    H127     H        0.44140    0.05230    0.96960    1.000
    C190     C        0.50270    0.97500    0.96580    1.000
    H128     H        0.47710    0.97020    0.92660    1.000
    C191     C        0.24060    0.25040    0.96050    1.000
    H129     H        0.21340    0.24830    0.92120    1.000
    C192     C        0.30200    0.20550    0.98830    1.000
    H130     H        0.32000    0.17570    0.96680    1.000
    C193     C        0.33510    0.20670    0.04900    1.000
    C194     C        0.31050    0.25350    0.07740    1.000
    H131     H        0.33240    0.25710    0.11700    1.000
    C195     C        0.25160    0.29520    0.04490    1.000
    H132     H        0.23260    0.32570    0.06490    1.000
    C196     C        0.39720    0.16180    0.07950    1.000
    C197     C        0.48530    0.12680    0.16390    1.000
    C198     C        0.48310    0.08080    0.08030    1.000
    N61      N        0.56280    0.13190    0.34700    1.000
    N62      N        0.56070    0.93460    0.99520    1.000
    N63      N        0.22100    0.29500    0.98860    1.000
    N64      N        0.42530    0.16770    0.13610    1.000
    N65      N        0.51880    0.08290    0.13670    1.000
    N66      N        0.42250    0.11860    0.04860    1.000
    Ag12     Ag       0.11941    0.63675    0.44374    1.000
    C199     C        0.03580    0.67560    0.31660    1.000
    H133     H        0.03360    0.70790    0.33650    1.000
    C200     C        0.01080    0.67670    0.25810    1.000
    H134     H        0.99310    0.70890    0.23870    1.000
    C201     C        0.01240    0.62820    0.22730    1.000
    C202     C        0.04180    0.58260    0.25730    1.000
    H135     H        0.04390    0.55000    0.23820    1.000
    C203     C        0.06870    0.58540    0.31740    1.000
    H136     H        0.09160    0.55420    0.33780    1.000
    C204     C        0.09450    0.44140    0.05040    1.000
    H137     H        0.13740    0.41420    0.07100    1.000
    C205     C        0.06870    0.48790    0.07940    1.000
    H138     H        0.09000    0.49090    0.11910    1.000
    C206     C        0.01270    0.52830    0.04910    1.000
    C207     C        0.97860    0.52420    0.99110    1.000
    H139     H        0.94140    0.55230    0.96960    1.000
    C208     C        0.00270    0.47500    0.96580    1.000
    H140     H        0.97710    0.47020    0.92660    1.000
    C209     C        0.74060    0.75040    0.96050    1.000
    H141     H        0.71340    0.74830    0.92120    1.000
    C210     C        0.80200    0.70550    0.98830    1.000
    H142     H        0.82000    0.67570    0.96680    1.000
    C211     C        0.83510    0.70670    0.04900    1.000
    C212     C        0.81050    0.75350    0.07740    1.000
    H143     H        0.83240    0.75710    0.11700    1.000
    C213     C        0.75160    0.79520    0.04490    1.000
    H144     H        0.73260    0.82570    0.06490    1.000
    C214     C        0.89720    0.66180    0.07950    1.000
    C215     C        0.98530    0.62680    0.16390    1.000
    C216     C        0.98310    0.58080    0.08030    1.000
    N67      N        0.06280    0.63190    0.34700    1.000
    N68      N        0.06070    0.43460    0.99520    1.000
    N69      N        0.72100    0.79500    0.98860    1.000
    N70      N        0.92530    0.66770    0.13610    1.000
    N71      N        0.01880    0.58290    0.13670    1.000
    N72      N        0.92250    0.61860    0.04860    1.000
