# CIF file generated by openbabel 3.1.0, see https://openbabel.org
data_I
_chemical_name_common 'image0'
_cell_length_a 30.839
_cell_length_b 14.9128
_cell_length_c 34.344
_cell_angle_alpha 90
_cell_angle_beta 99.929
_cell_angle_gamma 90
_space_group_name_H-M_alt 'P 1'
_space_group_name_Hall 'P 1'
loop_
    _symmetry_equiv_pos_as_xyz
    x,y,z
loop_
    _atom_site_label
    _atom_site_type_symbol
    _atom_site_fract_x
    _atom_site_fract_y
    _atom_site_fract_z
    _atom_site_occupancy
    Zn1      Zn       0.24031    0.88320    0.58481    1.000
    I1       I        0.31496    0.90310    0.63004    1.000
    I2       I        0.22117    0.98100    0.52407    1.000
    Zn2      Zn       0.90133    0.35530    0.66051    1.000
    I3       I        0.86686    0.39100    0.72088    1.000
    N1       N        0.08440    0.88530    0.71260    1.000
    N2       N        0.06170    0.01400    0.67360    1.000
    N3       N        0.02160    0.96700    0.72520    1.000
    N4       N        0.18950    0.89900    0.61680    1.000
    N5       N        0.94730    0.25100    0.67490    1.000
    N6       N        0.04500    0.73800    0.83150    1.000
    C1       C        0.08680    0.94200    0.68230    1.000
    C2       C        0.02880    0.02200    0.69680    1.000
    C3       C        0.05230    0.90100    0.73240    1.000
    C4       C        0.12290    0.92600    0.65910    1.000
    C5       C        0.14630    0.85200    0.66130    1.000
    H1       H        0.13910    0.80440    0.67750    1.000
    C6       C        0.18010    0.84100    0.64160    1.000
    H2       H        0.19770    0.78850    0.64620    1.000
    C7       C        0.16500    0.97200    0.61050    1.000
    H3       H        0.16980    0.01210    0.59020    1.000
    C8       C        0.13110    0.99200    0.63350    1.000
    H4       H        0.11560    0.04770    0.63100    1.000
    C9       C        0.00090    0.10200    0.68820    1.000
    C10      C        0.99910    0.15200    0.65370    1.000
    H5       H        0.01720    0.13610    0.63500    1.000
    C11      C        0.97240    0.22200    0.64680    1.000
    H6       H        0.97020    0.25370    0.62240    1.000
    C12      C        0.94690    0.20500    0.70810    1.000
    H7       H        0.92990    0.22390    0.72720    1.000
    C13      C        0.97330    0.12600    0.71370    1.000
    H8       H        0.97170    0.08880    0.73590    1.000
    C14      C        0.04860    0.84300    0.76790    1.000
    C15      C        0.00760    0.82400    0.77880    1.000
    H9       H        0.98110    0.84660    0.76370    1.000
    C16      C        0.00690    0.77200    0.81220    1.000
    H10      H        0.98000    0.76120    0.82130    1.000
    C17      C        0.08110    0.75700    0.82110    1.000
    H11      H        0.10720    0.73610    0.83750    1.000
    C18      C        0.08590    0.80500    0.78740    1.000
    H12      H        0.11340    0.81100    0.77880    1.000
    N7       N        0.73730    0.06400    0.56630    1.000
    N8       N        0.71500    0.19500    0.53040    1.000
    N9       N        0.67270    0.05600    0.51510    1.000
    N10      N        0.85290    0.29100    0.62300    1.000
    N11      N        0.58810    0.27500    0.42470    1.000
    N12      N        0.71400    0.73700    0.56180    1.000
    C19      C        0.74360    0.15100    0.56030    1.000
    C20      C        0.68210    0.14600    0.51270    1.000
    C21      C        0.70480    0.02200    0.54480    1.000
    C22      C        0.78130    0.20000    0.58350    1.000
    C23      C        0.80460    0.16500    0.61580    1.000
    H13      H        0.79760    0.10650    0.62350    1.000
    C24      C        0.83880    0.21100    0.63890    1.000
    H14      H        0.85210    0.18930    0.66420    1.000
    C25      C        0.82740    0.32100    0.58970    1.000
    H15      H        0.83460    0.37660    0.57910    1.000
    C26      C        0.79400    0.27800    0.57160    1.000
    H16      H        0.77760    0.30380    0.54840    1.000
    C27      C        0.65060    0.19100    0.48150    1.000
    C28      C        0.65470    0.27900    0.47120    1.000
    H17      H        0.67860    0.31280    0.48480    1.000
    C29      C        0.62440    0.32000    0.44090    1.000
    H18      H        0.62960    0.37870    0.43220    1.000
    C30      C        0.58140    0.19000    0.43270    1.000
    H19      H        0.55640    0.15990    0.41880    1.000
    C31      C        0.61170    0.14300    0.46260    1.000
    H20      H        0.60640    0.08240    0.46950    1.000
    C32      C        0.70580    0.92200    0.55050    1.000
    C33      C        0.67320    0.86700    0.53160    1.000
    H21      H        0.64720    0.88860    0.51520    1.000
    C34      C        0.68250    0.77700    0.53890    1.000
    H22      H        0.66160    0.73700    0.52440    1.000
    C35      C        0.73890    0.79100    0.58060    1.000
    H23      H        0.76100    0.76590    0.60020    1.000
    C36      C        0.74010    0.87900    0.57810    1.000
    H24      H        0.76260    0.91310    0.59390    1.000
    I4       I        0.93363    0.47800    0.62302    1.000
    Zn3      Zn       0.40916    0.11670    0.67295    1.000
    I5       I        0.45063    0.99760    0.64109    1.000
    I6       I        0.37005    0.08420    0.73023    1.000
    N13      N        0.58570    0.59420    0.71900    1.000
    N14      N        0.56280    0.46500    0.68410    1.000
    N15      N        0.52900    0.50500    0.73840    1.000
    N16      N        0.67530    0.58300    0.60850    1.000
    N17      N        0.45610    0.21800    0.68860    1.000
    N18      N        0.55990    0.75000    0.84000    1.000
    C37      C        0.58750    0.53300    0.68970    1.000
    C38      C        0.53200    0.45500    0.70810    1.000
    C39      C        0.56010    0.57600    0.74240    1.000
    C40      C        0.61960    0.55500    0.66110    1.000
    C41      C        0.64870    0.62500    0.66470    1.000
    H25      H        0.64950    0.66720    0.68540    1.000
    C42      C        0.67570    0.63200    0.63900    1.000
    H26      H        0.69750    0.67750    0.64370    1.000
    C43      C        0.63860    0.52100    0.60050    1.000
    H27      H        0.63110    0.49520    0.57500    1.000
    C44      C        0.61460    0.50000    0.62950    1.000
    H28      H        0.59560    0.44920    0.62730    1.000
    C45      C        0.50540    0.37000    0.70280    1.000
    C46      C        0.50680    0.31600    0.66830    1.000
    H29      H        0.52440    0.33160    0.64920    1.000
    C47      C        0.48060    0.24000    0.66500    1.000
    H30      H        0.48150    0.20180    0.64310    1.000
    C48      C        0.45050    0.26900    0.72050    1.000
    H31      H        0.43030    0.25190    0.73720    1.000
    C49      C        0.47690    0.34800    0.72760    1.000
    H32      H        0.47450    0.38620    0.74940    1.000
    C50      C        0.55640    0.63700    0.77510    1.000
    C51      C        0.51790    0.64700    0.79370    1.000
    H33      H        0.49210    0.61240    0.78530    1.000
    C52      C        0.52050    0.70800    0.82400    1.000
    H34      H        0.49460    0.72150    0.83440    1.000
    C53      C        0.59390    0.73300    0.82430    1.000
    H35      H        0.62090    0.75830    0.83710    1.000
    C54      C        0.59540    0.68200    0.79070    1.000
    H36      H        0.62120    0.67840    0.77900    1.000
    N19      N        0.26110    0.42200    0.57350    1.000
    N20      N        0.23590    0.29500    0.53510    1.000
    N21      N        0.19910    0.43500    0.52270    1.000
    N22      N        0.36690    0.18400    0.63060    1.000
    N23      N        0.10960    0.22000    0.42810    1.000
    N24      N        0.23640    0.74800    0.57200    1.000
    C55      C        0.26030    0.33800    0.56220    1.000
    C56      C        0.20250    0.34800    0.51460    1.000
    C57      C        0.22900    0.46600    0.54980    1.000
    C58      C        0.29930    0.28300    0.58560    1.000
    C59      C        0.32280    0.31800    0.61520    1.000
    H37      H        0.31580    0.37750    0.62210    1.000
    C60      C        0.36010    0.27400    0.63960    1.000
    H38      H        0.37870    0.30410    0.66030    1.000
    C61      C        0.33720    0.15400    0.60040    1.000
    H39      H        0.34070    0.09310    0.59400    1.000
    C62      C        0.30510    0.19300    0.57870    1.000
    H40      H        0.28600    0.16160    0.55870    1.000
    C63      C        0.16990    0.30200    0.48620    1.000
    C64      C        0.17390    0.20900    0.47440    1.000
    H41      H        0.19890    0.17500    0.48570    1.000
    C65      C        0.14350    0.17400    0.44840    1.000
    H42      H        0.14520    0.11110    0.44330    1.000
    C66      C        0.10400    0.30500    0.43770    1.000
    H43      H        0.07810    0.33540    0.42580    1.000
    C67      C        0.13360    0.34800    0.46360    1.000
    H44      H        0.13060    0.41110    0.46700    1.000
    C68      C        0.23120    0.56800    0.55680    1.000
    C69      C        0.19920    0.62700    0.53500    1.000
    H45      H        0.17520    0.60500    0.51630    1.000
    C70      C        0.20480    0.71800    0.54240    1.000
    H46      H        0.18630    0.76040    0.52660    1.000
    C71      C        0.26270    0.68900    0.59520    1.000
    H47      H        0.28330    0.70980    0.61710    1.000
    C72      C        0.25910    0.60400    0.58700    1.000
    H48      H        0.27780    0.56350    0.60370    1.000
    Zn4      Zn       0.53920    0.33170    0.38420    1.000
    Zn5      Zn       0.72660    0.60470    0.58010    1.000
    I7       I        0.56680    0.49030    0.37380    1.000
    I8       I        0.46530    0.31210    0.40520    1.000
    I9       I        0.70070    0.51310    0.51910    1.000
    I10      I        0.80300    0.58480    0.62220    1.000
    I11      I        0.49421    0.86840    0.90943    1.000
    Zn6      Zn       0.56550    0.84220    0.88415    1.000
    I12      I        0.60644    0.97550    0.85930    1.000
    I13      I        0.54600    0.89990    0.44304    1.000
    I14      I        0.53760    0.80720    0.50968    1.000
    Zn7      Zn       0.21310    0.88400    0.57690    1.000
    I15      I        0.28810    0.91200    0.62040    1.000
    I16      I        0.19280    0.97000    0.51280    1.000
    Zn8      Zn       0.55590    0.35070    0.37590    1.000
    I17      I        0.51860    0.63900    0.60380    1.000
    Zn9      Zn       0.70190    0.59960    0.55570    1.000
    I18      I        0.66230    0.53640    0.49100    1.000
    I19      I        0.77950    0.54640    0.58550    1.000
    Zn10     Zn       0.54290    0.83400    0.88700    1.000
    I20      I        0.74430    0.40400    0.64210    1.000
    I21      I        0.71650    0.28780    0.69330    1.000
    I22      I        0.68560    0.26110    0.64010    1.000
    I23      I        0.76170    0.32800    0.68160    1.000
    I24      I        0.50810    0.99480    0.47680    1.000
    I25      I        0.54880    0.83800    0.46610    1.000
    I26      I        0.57940    0.56800    0.44390    1.000
    I27      I        0.56100    0.59360    0.51760    1.000
    I28      I        0.58100    0.59300    0.43860    1.000
    I29      I        0.54060    0.50800    0.49250    1.000
    I30      I        0.60020    0.86900    0.61660    1.000
    I31      I        0.66190    0.99700    0.63900    1.000
    I32      I        0.55210    0.82330    0.59720    1.000
    I33      I        0.57850    0.99590    0.59150    1.000
    I34      I        0.56140    0.24800    0.55920    1.000
    I35      I        0.63480    0.24380    0.61570    1.000
    I36      I        0.58690    0.19700    0.57380    1.000
    I37      I        0.56980    0.36420    0.54410    1.000
    I38      I        0.46790    0.85000    0.90590    1.000
    I39      I        0.43010    0.70270    0.89830    1.000
    I40      I        0.36290    0.58360    0.88080    1.000
    I41      I        0.43480    0.67070    0.91290    1.000
    I42      I        0.38920    0.51540    0.91500    1.000
    I43      I        0.59400    0.49160    0.35600    1.000
    I44      I        0.61940    0.40310    0.21620    1.000
    I45      I        0.59850    0.45160    0.28670    1.000
    I46      I        0.58110    0.97500    0.86460    1.000
    Zn11     Zn       0.25969    0.88320    0.91519    1.000
    I47      I        0.18504    0.90310    0.86996    1.000
    I48      I        0.27883    0.98100    0.97593    1.000
    Zn12     Zn       0.59867    0.35530    0.83949    1.000
    I49      I        0.63314    0.39100    0.77912    1.000
    N25      N        0.41560    0.88530    0.78740    1.000
    N26      N        0.43830    0.01400    0.82640    1.000
    N27      N        0.47840    0.96700    0.77480    1.000
    N28      N        0.31050    0.89900    0.88320    1.000
    N29      N        0.55270    0.25100    0.82510    1.000
    N30      N        0.45500    0.73800    0.66850    1.000
    C73      C        0.41320    0.94200    0.81770    1.000
    C74      C        0.47120    0.02200    0.80320    1.000
    C75      C        0.44770    0.90100    0.76760    1.000
    C76      C        0.37710    0.92600    0.84090    1.000
    C77      C        0.35370    0.85200    0.83870    1.000
    H49      H        0.36090    0.80440    0.82250    1.000
    C78      C        0.31990    0.84100    0.85840    1.000
    H50      H        0.30230    0.78850    0.85380    1.000
    C79      C        0.33500    0.97200    0.88950    1.000
    H51      H        0.33020    0.01210    0.90980    1.000
    C80      C        0.36890    0.99200    0.86650    1.000
    H52      H        0.38440    0.04770    0.86900    1.000
    C81      C        0.49910    0.10200    0.81180    1.000
    C82      C        0.50090    0.15200    0.84630    1.000
    H53      H        0.48280    0.13610    0.86500    1.000
    C83      C        0.52760    0.22200    0.85320    1.000
    H54      H        0.52980    0.25370    0.87760    1.000
    C84      C        0.55310    0.20500    0.79190    1.000
    H55      H        0.57010    0.22390    0.77280    1.000
    C85      C        0.52670    0.12600    0.78630    1.000
    H56      H        0.52830    0.08880    0.76410    1.000
    C86      C        0.45140    0.84300    0.73210    1.000
    C87      C        0.49240    0.82400    0.72120    1.000
    H57      H        0.51890    0.84660    0.73630    1.000
    C88      C        0.49310    0.77200    0.68780    1.000
    H58      H        0.52000    0.76120    0.67870    1.000
    C89      C        0.41890    0.75700    0.67890    1.000
    H59      H        0.39280    0.73610    0.66250    1.000
    C90      C        0.41410    0.80500    0.71260    1.000
    H60      H        0.38660    0.81100    0.72120    1.000
    N31      N        0.76270    0.06400    0.93370    1.000
    N32      N        0.78500    0.19500    0.96960    1.000
    N33      N        0.82730    0.05600    0.98490    1.000
    N34      N        0.64710    0.29100    0.87700    1.000
    N35      N        0.91190    0.27500    0.07530    1.000
    N36      N        0.78600    0.73700    0.93820    1.000
    C91      C        0.75640    0.15100    0.93970    1.000
    C92      C        0.81790    0.14600    0.98730    1.000
    C93      C        0.79520    0.02200    0.95520    1.000
    C94      C        0.71870    0.20000    0.91650    1.000
    C95      C        0.69540    0.16500    0.88420    1.000
    H61      H        0.70240    0.10650    0.87650    1.000
    C96      C        0.66120    0.21100    0.86110    1.000
    H62      H        0.64790    0.18930    0.83580    1.000
    C97      C        0.67260    0.32100    0.91030    1.000
    H63      H        0.66540    0.37660    0.92090    1.000
    C98      C        0.70600    0.27800    0.92840    1.000
    H64      H        0.72240    0.30380    0.95160    1.000
    C99      C        0.84940    0.19100    0.01850    1.000
    C100     C        0.84530    0.27900    0.02880    1.000
    H65      H        0.82140    0.31280    0.01520    1.000
    C101     C        0.87560    0.32000    0.05910    1.000
    H66      H        0.87040    0.37870    0.06780    1.000
    C102     C        0.91860    0.19000    0.06730    1.000
    H67      H        0.94360    0.15990    0.08120    1.000
    C103     C        0.88830    0.14300    0.03740    1.000
    H68      H        0.89360    0.08240    0.03050    1.000
    C104     C        0.79420    0.92200    0.94950    1.000
    C105     C        0.82680    0.86700    0.96840    1.000
    H69      H        0.85280    0.88860    0.98480    1.000
    C106     C        0.81750    0.77700    0.96110    1.000
    H70      H        0.83840    0.73700    0.97560    1.000
    C107     C        0.76110    0.79100    0.91940    1.000
    H71      H        0.73900    0.76590    0.89980    1.000
    C108     C        0.75990    0.87900    0.92190    1.000
    H72      H        0.73740    0.91310    0.90610    1.000
    I50      I        0.56637    0.47800    0.87698    1.000
    Zn13     Zn       0.09084    0.11670    0.82705    1.000
    I51      I        0.04937    0.99760    0.85891    1.000
    I52      I        0.12995    0.08420    0.76977    1.000
    N37      N        0.91430    0.59420    0.78100    1.000
    N38      N        0.93720    0.46500    0.81590    1.000
    N39      N        0.97100    0.50500    0.76160    1.000
    N40      N        0.82470    0.58300    0.89150    1.000
    N41      N        0.04390    0.21800    0.81140    1.000
    N42      N        0.94010    0.75000    0.66000    1.000
    C109     C        0.91250    0.53300    0.81030    1.000
    C110     C        0.96800    0.45500    0.79190    1.000
    C111     C        0.93990    0.57600    0.75760    1.000
    C112     C        0.88040    0.55500    0.83890    1.000
    C113     C        0.85130    0.62500    0.83530    1.000
    H73      H        0.85050    0.66720    0.81460    1.000
    C114     C        0.82430    0.63200    0.86100    1.000
    H74      H        0.80250    0.67750    0.85630    1.000
    C115     C        0.86140    0.52100    0.89950    1.000
    H75      H        0.86890    0.49520    0.92500    1.000
    C116     C        0.88540    0.50000    0.87050    1.000
    H76      H        0.90440    0.44920    0.87270    1.000
    C117     C        0.99460    0.37000    0.79720    1.000
    C118     C        0.99320    0.31600    0.83170    1.000
    H77      H        0.97560    0.33160    0.85080    1.000
    C119     C        0.01940    0.24000    0.83500    1.000
    H78      H        0.01850    0.20180    0.85690    1.000
    C120     C        0.04950    0.26900    0.77950    1.000
    H79      H        0.06970    0.25190    0.76280    1.000
    C121     C        0.02310    0.34800    0.77240    1.000
    H80      H        0.02550    0.38620    0.75060    1.000
    C122     C        0.94360    0.63700    0.72490    1.000
    C123     C        0.98210    0.64700    0.70630    1.000
    H81      H        0.00790    0.61240    0.71470    1.000
    C124     C        0.97950    0.70800    0.67600    1.000
    H82      H        0.00540    0.72150    0.66560    1.000
    C125     C        0.90610    0.73300    0.67570    1.000
    H83      H        0.87910    0.75830    0.66290    1.000
    C126     C        0.90460    0.68200    0.70930    1.000
    H84      H        0.87880    0.67840    0.72100    1.000
    N43      N        0.23890    0.42200    0.92650    1.000
    N44      N        0.26410    0.29500    0.96490    1.000
    N45      N        0.30090    0.43500    0.97730    1.000
    N46      N        0.13310    0.18400    0.86940    1.000
    N47      N        0.39040    0.22000    0.07190    1.000
    N48      N        0.26360    0.74800    0.92800    1.000
    C127     C        0.23970    0.33800    0.93780    1.000
    C128     C        0.29750    0.34800    0.98540    1.000
    C129     C        0.27100    0.46600    0.95020    1.000
    C130     C        0.20070    0.28300    0.91440    1.000
    C131     C        0.17720    0.31800    0.88480    1.000
    H85      H        0.18420    0.37750    0.87790    1.000
    C132     C        0.13990    0.27400    0.86040    1.000
    H86      H        0.12130    0.30410    0.83970    1.000
    C133     C        0.16280    0.15400    0.89960    1.000
    H87      H        0.15930    0.09310    0.90600    1.000
    C134     C        0.19490    0.19300    0.92130    1.000
    H88      H        0.21400    0.16160    0.94130    1.000
    C135     C        0.33010    0.30200    0.01380    1.000
    C136     C        0.32610    0.20900    0.02560    1.000
    H89      H        0.30110    0.17500    0.01430    1.000
    C137     C        0.35650    0.17400    0.05160    1.000
    H90      H        0.35480    0.11110    0.05670    1.000
    C138     C        0.39600    0.30500    0.06230    1.000
    H91      H        0.42190    0.33540    0.07420    1.000
    C139     C        0.36640    0.34800    0.03640    1.000
    H92      H        0.36940    0.41110    0.03300    1.000
    C140     C        0.26880    0.56800    0.94320    1.000
    C141     C        0.30080    0.62700    0.96500    1.000
    H93      H        0.32480    0.60500    0.98370    1.000
    C142     C        0.29520    0.71800    0.95760    1.000
    H94      H        0.31370    0.76040    0.97340    1.000
    C143     C        0.23730    0.68900    0.90480    1.000
    H95      H        0.21670    0.70980    0.88290    1.000
    C144     C        0.24090    0.60400    0.91300    1.000
    H96      H        0.22220    0.56350    0.89630    1.000
    Zn14     Zn       0.96080    0.33170    0.11580    1.000
    Zn15     Zn       0.77340    0.60470    0.91990    1.000
    I53      I        0.93320    0.49030    0.12620    1.000
    I54      I        0.03470    0.31210    0.09480    1.000
    I55      I        0.79930    0.51310    0.98090    1.000
    I56      I        0.69700    0.58480    0.87780    1.000
    I57      I        0.00579    0.86840    0.59057    1.000
    Zn16     Zn       0.93450    0.84220    0.61585    1.000
    I58      I        0.89356    0.97550    0.64070    1.000
    I59      I        0.95400    0.89990    0.05696    1.000
    I60      I        0.96240    0.80720    0.99032    1.000
    Zn17     Zn       0.28690    0.88400    0.92310    1.000
    I61      I        0.21190    0.91200    0.87960    1.000
    I62      I        0.30720    0.97000    0.98720    1.000
    Zn18     Zn       0.94410    0.35070    0.12410    1.000
    I63      I        0.98140    0.63900    0.89620    1.000
    Zn19     Zn       0.79810    0.59960    0.94430    1.000
    I64      I        0.83770    0.53640    0.00900    1.000
    I65      I        0.72050    0.54640    0.91450    1.000
    Zn20     Zn       0.95710    0.83400    0.61300    1.000
    I66      I        0.75570    0.40400    0.85790    1.000
    I67      I        0.78350    0.28780    0.80670    1.000
    I68      I        0.81440    0.26110    0.85990    1.000
    I69      I        0.73830    0.32800    0.81840    1.000
    I70      I        0.99190    0.99480    0.02320    1.000
    I71      I        0.95120    0.83800    0.03390    1.000
    I72      I        0.92060    0.56800    0.05610    1.000
    I73      I        0.93900    0.59360    0.98240    1.000
    I74      I        0.91900    0.59300    0.06140    1.000
    I75      I        0.95940    0.50800    0.00750    1.000
    I76      I        0.89980    0.86900    0.88340    1.000
    I77      I        0.83810    0.99700    0.86100    1.000
    I78      I        0.94790    0.82330    0.90280    1.000
    I79      I        0.92150    0.99590    0.90850    1.000
    I80      I        0.93860    0.24800    0.94080    1.000
    I81      I        0.86520    0.24380    0.88430    1.000
    I82      I        0.91310    0.19700    0.92620    1.000
    I83      I        0.93020    0.36420    0.95590    1.000
    I84      I        0.03210    0.85000    0.59410    1.000
    I85      I        0.06990    0.70270    0.60170    1.000
    I86      I        0.13710    0.58360    0.61920    1.000
    I87      I        0.06520    0.67070    0.58710    1.000
    I88      I        0.11080    0.51540    0.58500    1.000
    I89      I        0.90600    0.49160    0.14400    1.000
    I90      I        0.88060    0.40310    0.28380    1.000
    I91      I        0.90150    0.45160    0.21330    1.000
    I92      I        0.91890    0.97500    0.63540    1.000
    Zn21     Zn       0.75969    0.11680    0.41519    1.000
    I93      I        0.68504    0.09690    0.36996    1.000
    I94      I        0.77883    0.01900    0.47593    1.000
    Zn22     Zn       0.09867    0.64470    0.33949    1.000
    I95      I        0.13314    0.60900    0.27912    1.000
    N49      N        0.91560    0.11470    0.28740    1.000
    N50      N        0.93830    0.98600    0.32640    1.000
    N51      N        0.97840    0.03300    0.27480    1.000
    N52      N        0.81050    0.10100    0.38320    1.000
    N53      N        0.05270    0.74900    0.32510    1.000
    N54      N        0.95500    0.26200    0.16850    1.000
    C145     C        0.91320    0.05800    0.31770    1.000
    C146     C        0.97120    0.97800    0.30320    1.000
    C147     C        0.94770    0.09900    0.26760    1.000
    C148     C        0.87710    0.07400    0.34090    1.000
    C149     C        0.85370    0.14800    0.33870    1.000
    H97      H        0.86090    0.19560    0.32250    1.000
    C150     C        0.81990    0.15900    0.35840    1.000
    H98      H        0.80230    0.21150    0.35380    1.000
    C151     C        0.83500    0.02800    0.38950    1.000
    H99      H        0.83020    0.98790    0.40980    1.000
    C152     C        0.86890    0.00800    0.36650    1.000
    H100     H        0.88440    0.95230    0.36900    1.000
    C153     C        0.99910    0.89800    0.31180    1.000
    C154     C        0.00090    0.84800    0.34630    1.000
    H101     H        0.98280    0.86390    0.36500    1.000
    C155     C        0.02760    0.77800    0.35320    1.000
    H102     H        0.02980    0.74630    0.37760    1.000
    C156     C        0.05310    0.79500    0.29190    1.000
    H103     H        0.07010    0.77610    0.27280    1.000
    C157     C        0.02670    0.87400    0.28630    1.000
    H104     H        0.02830    0.91120    0.26410    1.000
    C158     C        0.95140    0.15700    0.23210    1.000
    C159     C        0.99240    0.17600    0.22120    1.000
    H105     H        0.01890    0.15340    0.23630    1.000
    C160     C        0.99310    0.22800    0.18780    1.000
    H106     H        0.02000    0.23880    0.17870    1.000
    C161     C        0.91890    0.24300    0.17890    1.000
    H107     H        0.89280    0.26390    0.16250    1.000
    C162     C        0.91410    0.19500    0.21260    1.000
    H108     H        0.88660    0.18900    0.22120    1.000
    N55      N        0.26270    0.93600    0.43370    1.000
    N56      N        0.28500    0.80500    0.46960    1.000
    N57      N        0.32730    0.94400    0.48490    1.000
    N58      N        0.14710    0.70900    0.37700    1.000
    N59      N        0.41190    0.72500    0.57530    1.000
    N60      N        0.28600    0.26300    0.43820    1.000
    C163     C        0.25640    0.84900    0.43970    1.000
    C164     C        0.31790    0.85400    0.48730    1.000
    C165     C        0.29520    0.97800    0.45520    1.000
    C166     C        0.21870    0.80000    0.41650    1.000
    C167     C        0.19540    0.83500    0.38420    1.000
    H109     H        0.20240    0.89350    0.37650    1.000
    C168     C        0.16120    0.78900    0.36110    1.000
    H110     H        0.14790    0.81070    0.33580    1.000
    C169     C        0.17260    0.67900    0.41030    1.000
    H111     H        0.16540    0.62340    0.42090    1.000
    C170     C        0.20600    0.72200    0.42840    1.000
    H112     H        0.22240    0.69620    0.45160    1.000
    C171     C        0.34940    0.80900    0.51850    1.000
    C172     C        0.34530    0.72100    0.52880    1.000
    H113     H        0.32140    0.68720    0.51520    1.000
    C173     C        0.37560    0.68000    0.55910    1.000
    H114     H        0.37040    0.62130    0.56780    1.000
    C174     C        0.41860    0.81000    0.56730    1.000
    H115     H        0.44360    0.84010    0.58120    1.000
    C175     C        0.38830    0.85700    0.53740    1.000
    H116     H        0.39360    0.91760    0.53050    1.000
    C176     C        0.29420    0.07800    0.44950    1.000
    C177     C        0.32680    0.13300    0.46840    1.000
    H117     H        0.35280    0.11140    0.48480    1.000
    C178     C        0.31750    0.22300    0.46110    1.000
    H118     H        0.33840    0.26300    0.47560    1.000
    C179     C        0.26110    0.20900    0.41940    1.000
    H119     H        0.23900    0.23410    0.39980    1.000
    C180     C        0.25990    0.12100    0.42190    1.000
    H120     H        0.23740    0.08690    0.40610    1.000
    I96      I        0.06637    0.52200    0.37698    1.000
    Zn23     Zn       0.59084    0.88330    0.32705    1.000
    I97      I        0.54937    0.00240    0.35891    1.000
    I98      I        0.62995    0.91580    0.26977    1.000
    N61      N        0.41430    0.40580    0.28100    1.000
    N62      N        0.43720    0.53500    0.31590    1.000
    N63      N        0.47100    0.49500    0.26160    1.000
    N64      N        0.32470    0.41700    0.39150    1.000
    N65      N        0.54390    0.78200    0.31140    1.000
    N66      N        0.44010    0.25000    0.16000    1.000
    C181     C        0.41250    0.46700    0.31030    1.000
    C182     C        0.46800    0.54500    0.29190    1.000
    C183     C        0.43990    0.42400    0.25760    1.000
    C184     C        0.38040    0.44500    0.33890    1.000
    C185     C        0.35130    0.37500    0.33530    1.000
    H121     H        0.35050    0.33280    0.31460    1.000
    C186     C        0.32430    0.36800    0.36100    1.000
    H122     H        0.30250    0.32250    0.35630    1.000
    C187     C        0.36140    0.47900    0.39950    1.000
    H123     H        0.36890    0.50480    0.42500    1.000
    C188     C        0.38540    0.50000    0.37050    1.000
    H124     H        0.40440    0.55080    0.37270    1.000
    C189     C        0.49460    0.63000    0.29720    1.000
    C190     C        0.49320    0.68400    0.33170    1.000
    H125     H        0.47560    0.66840    0.35080    1.000
    C191     C        0.51940    0.76000    0.33500    1.000
    H126     H        0.51850    0.79820    0.35690    1.000
    C192     C        0.54950    0.73100    0.27950    1.000
    H127     H        0.56970    0.74810    0.26280    1.000
    C193     C        0.52310    0.65200    0.27240    1.000
    H128     H        0.52550    0.61380    0.25060    1.000
    C194     C        0.44360    0.36300    0.22490    1.000
    C195     C        0.48210    0.35300    0.20630    1.000
    H129     H        0.50790    0.38760    0.21470    1.000
    C196     C        0.47950    0.29200    0.17600    1.000
    H130     H        0.50540    0.27850    0.16560    1.000
    C197     C        0.40610    0.26700    0.17570    1.000
    H131     H        0.37910    0.24170    0.16290    1.000
    C198     C        0.40460    0.31800    0.20930    1.000
    H132     H        0.37880    0.32160    0.22100    1.000
    N67      N        0.73890    0.57800    0.42650    1.000
    N68      N        0.76410    0.70500    0.46490    1.000
    N69      N        0.80090    0.56500    0.47730    1.000
    N70      N        0.63310    0.81600    0.36940    1.000
    N71      N        0.89040    0.78000    0.57190    1.000
    N72      N        0.76360    0.25200    0.42800    1.000
    C199     C        0.73970    0.66200    0.43780    1.000
    C200     C        0.79750    0.65200    0.48540    1.000
    C201     C        0.77100    0.53400    0.45020    1.000
    C202     C        0.70070    0.71700    0.41440    1.000
    C203     C        0.67720    0.68200    0.38480    1.000
    H133     H        0.68420    0.62250    0.37790    1.000
    C204     C        0.63990    0.72600    0.36040    1.000
    H134     H        0.62130    0.69590    0.33970    1.000
    C205     C        0.66280    0.84600    0.39960    1.000
    H135     H        0.65930    0.90690    0.40600    1.000
    C206     C        0.69490    0.80700    0.42130    1.000
    H136     H        0.71400    0.83840    0.44130    1.000
    C207     C        0.83010    0.69800    0.51380    1.000
    C208     C        0.82610    0.79100    0.52560    1.000
    H137     H        0.80110    0.82500    0.51430    1.000
    C209     C        0.85650    0.82600    0.55160    1.000
    H138     H        0.85480    0.88890    0.55670    1.000
    C210     C        0.89600    0.69500    0.56230    1.000
    H139     H        0.92190    0.66460    0.57420    1.000
    C211     C        0.86640    0.65200    0.53640    1.000
    H140     H        0.86940    0.58890    0.53300    1.000
    C212     C        0.76880    0.43200    0.44320    1.000
    C213     C        0.80080    0.37300    0.46500    1.000
    H141     H        0.82480    0.39500    0.48370    1.000
    C214     C        0.79520    0.28200    0.45760    1.000
    H142     H        0.81370    0.23960    0.47340    1.000
    C215     C        0.73730    0.31100    0.40480    1.000
    H143     H        0.71670    0.29020    0.38290    1.000
    C216     C        0.74090    0.39600    0.41300    1.000
    H144     H        0.72220    0.43650    0.39630    1.000
    Zn24     Zn       0.46080    0.66830    0.61580    1.000
    Zn25     Zn       0.27340    0.39530    0.41990    1.000
    I99      I        0.43320    0.50970    0.62620    1.000
    I100     I        0.53470    0.68790    0.59480    1.000
    I101     I        0.29930    0.48690    0.48090    1.000
    I102     I        0.19700    0.41520    0.37780    1.000
    I103     I        0.50579    0.13160    0.09057    1.000
    Zn26     Zn       0.43450    0.15780    0.11585    1.000
    I104     I        0.39356    0.02450    0.14070    1.000
    I105     I        0.45400    0.10010    0.55696    1.000
    I106     I        0.46240    0.19280    0.49032    1.000
    Zn27     Zn       0.78690    0.11600    0.42310    1.000
    I107     I        0.71190    0.08800    0.37960    1.000
    I108     I        0.80720    0.03000    0.48720    1.000
    Zn28     Zn       0.44410    0.64930    0.62410    1.000
    I109     I        0.48140    0.36100    0.39620    1.000
    Zn29     Zn       0.29810    0.40040    0.44430    1.000
    I110     I        0.33770    0.46360    0.50900    1.000
    I111     I        0.22050    0.45360    0.41450    1.000
    Zn30     Zn       0.45710    0.16600    0.11300    1.000
    I112     I        0.25570    0.59600    0.35790    1.000
    I113     I        0.28350    0.71220    0.30670    1.000
    I114     I        0.31440    0.73890    0.35990    1.000
    I115     I        0.23830    0.67200    0.31840    1.000
    I116     I        0.49190    0.00520    0.52320    1.000
    I117     I        0.45120    0.16200    0.53390    1.000
    I118     I        0.42060    0.43200    0.55610    1.000
    I119     I        0.43900    0.40640    0.48240    1.000
    I120     I        0.41900    0.40700    0.56140    1.000
    I121     I        0.45940    0.49200    0.50750    1.000
    I122     I        0.39980    0.13100    0.38340    1.000
    I123     I        0.33810    0.00300    0.36100    1.000
    I124     I        0.44790    0.17670    0.40280    1.000
    I125     I        0.42150    0.00410    0.40850    1.000
    I126     I        0.43860    0.75200    0.44080    1.000
    I127     I        0.36520    0.75620    0.38430    1.000
    I128     I        0.41310    0.80300    0.42620    1.000
    I129     I        0.43020    0.63580    0.45590    1.000
    I130     I        0.53210    0.15000    0.09410    1.000
    I131     I        0.56990    0.29730    0.10170    1.000
    I132     I        0.63710    0.41640    0.11920    1.000
    I133     I        0.56520    0.32930    0.08710    1.000
    I134     I        0.61080    0.48460    0.08500    1.000
    I135     I        0.40600    0.50840    0.64400    1.000
    I136     I        0.38060    0.59690    0.78380    1.000
    I137     I        0.40150    0.54840    0.71330    1.000
    I138     I        0.41890    0.02500    0.13540    1.000
    Zn31     Zn       0.74031    0.11680    0.08481    1.000
    I139     I        0.81496    0.09690    0.13004    1.000
    I140     I        0.72117    0.01900    0.02407    1.000
    Zn32     Zn       0.40133    0.64470    0.16051    1.000
    I141     I        0.36686    0.60900    0.22088    1.000
    N73      N        0.58440    0.11470    0.21260    1.000
    N74      N        0.56170    0.98600    0.17360    1.000
    N75      N        0.52160    0.03300    0.22520    1.000
    N76      N        0.68950    0.10100    0.11680    1.000
    N77      N        0.44730    0.74900    0.17490    1.000
    N78      N        0.54500    0.26200    0.33150    1.000
    C217     C        0.58680    0.05800    0.18230    1.000
    C218     C        0.52880    0.97800    0.19680    1.000
    C219     C        0.55230    0.09900    0.23240    1.000
    C220     C        0.62290    0.07400    0.15910    1.000
    C221     C        0.64630    0.14800    0.16130    1.000
    H145     H        0.63910    0.19560    0.17750    1.000
    C222     C        0.68010    0.15900    0.14160    1.000
    H146     H        0.69770    0.21150    0.14620    1.000
    C223     C        0.66500    0.02800    0.11050    1.000
    H147     H        0.66980    0.98790    0.09020    1.000
    C224     C        0.63110    0.00800    0.13350    1.000
    H148     H        0.61560    0.95230    0.13100    1.000
    C225     C        0.50090    0.89800    0.18820    1.000
    C226     C        0.49910    0.84800    0.15370    1.000
    H149     H        0.51720    0.86390    0.13500    1.000
    C227     C        0.47240    0.77800    0.14680    1.000
    H150     H        0.47020    0.74630    0.12240    1.000
    C228     C        0.44690    0.79500    0.20810    1.000
    H151     H        0.42990    0.77610    0.22720    1.000
    C229     C        0.47330    0.87400    0.21370    1.000
    H152     H        0.47170    0.91120    0.23590    1.000
    C230     C        0.54860    0.15700    0.26790    1.000
    C231     C        0.50760    0.17600    0.27880    1.000
    H153     H        0.48110    0.15340    0.26370    1.000
    C232     C        0.50690    0.22800    0.31220    1.000
    H154     H        0.48000    0.23880    0.32130    1.000
    C233     C        0.58110    0.24300    0.32110    1.000
    H155     H        0.60720    0.26390    0.33750    1.000
    C234     C        0.58590    0.19500    0.28740    1.000
    H156     H        0.61340    0.18900    0.27880    1.000
    N79      N        0.23730    0.93600    0.06630    1.000
    N80      N        0.21500    0.80500    0.03040    1.000
    N81      N        0.17270    0.94400    0.01510    1.000
    N82      N        0.35290    0.70900    0.12300    1.000
    N83      N        0.08810    0.72500    0.92470    1.000
    N84      N        0.21400    0.26300    0.06180    1.000
    C235     C        0.24360    0.84900    0.06030    1.000
    C236     C        0.18210    0.85400    0.01270    1.000
    C237     C        0.20480    0.97800    0.04480    1.000
    C238     C        0.28130    0.80000    0.08350    1.000
    C239     C        0.30460    0.83500    0.11580    1.000
    H157     H        0.29760    0.89350    0.12350    1.000
    C240     C        0.33880    0.78900    0.13890    1.000
    H158     H        0.35210    0.81070    0.16420    1.000
    C241     C        0.32740    0.67900    0.08970    1.000
    H159     H        0.33460    0.62340    0.07910    1.000
    C242     C        0.29400    0.72200    0.07160    1.000
    H160     H        0.27760    0.69620    0.04840    1.000
    C243     C        0.15060    0.80900    0.98150    1.000
    C244     C        0.15470    0.72100    0.97120    1.000
    H161     H        0.17860    0.68720    0.98480    1.000
    C245     C        0.12440    0.68000    0.94090    1.000
    H162     H        0.12960    0.62130    0.93220    1.000
    C246     C        0.08140    0.81000    0.93270    1.000
    H163     H        0.05640    0.84010    0.91880    1.000
    C247     C        0.11170    0.85700    0.96260    1.000
    H164     H        0.10640    0.91760    0.96950    1.000
    C248     C        0.20580    0.07800    0.05050    1.000
    C249     C        0.17320    0.13300    0.03160    1.000
    H165     H        0.14720    0.11140    0.01520    1.000
    C250     C        0.18250    0.22300    0.03890    1.000
    H166     H        0.16160    0.26300    0.02440    1.000
    C251     C        0.23890    0.20900    0.08060    1.000
    H167     H        0.26100    0.23410    0.10020    1.000
    C252     C        0.24010    0.12100    0.07810    1.000
    H168     H        0.26260    0.08690    0.09390    1.000
    I142     I        0.43363    0.52200    0.12302    1.000
    Zn33     Zn       0.90916    0.88330    0.17295    1.000
    I143     I        0.95063    0.00240    0.14109    1.000
    I144     I        0.87005    0.91580    0.23023    1.000
    N85      N        0.08570    0.40580    0.21900    1.000
    N86      N        0.06280    0.53500    0.18410    1.000
    N87      N        0.02900    0.49500    0.23840    1.000
    N88      N        0.17530    0.41700    0.10850    1.000
    N89      N        0.95610    0.78200    0.18860    1.000
    N90      N        0.05990    0.25000    0.34000    1.000
    C253     C        0.08750    0.46700    0.18970    1.000
    C254     C        0.03200    0.54500    0.20810    1.000
    C255     C        0.06010    0.42400    0.24240    1.000
    C256     C        0.11960    0.44500    0.16110    1.000
    C257     C        0.14870    0.37500    0.16470    1.000
    H169     H        0.14950    0.33280    0.18540    1.000
    C258     C        0.17570    0.36800    0.13900    1.000
    H170     H        0.19750    0.32250    0.14370    1.000
    C259     C        0.13860    0.47900    0.10050    1.000
    H171     H        0.13110    0.50480    0.07500    1.000
    C260     C        0.11460    0.50000    0.12950    1.000
    H172     H        0.09560    0.55080    0.12730    1.000
    C261     C        0.00540    0.63000    0.20280    1.000
    C262     C        0.00680    0.68400    0.16830    1.000
    H173     H        0.02440    0.66840    0.14920    1.000
    C263     C        0.98060    0.76000    0.16500    1.000
    H174     H        0.98150    0.79820    0.14310    1.000
    C264     C        0.95050    0.73100    0.22050    1.000
    H175     H        0.93030    0.74810    0.23720    1.000
    C265     C        0.97690    0.65200    0.22760    1.000
    H176     H        0.97450    0.61380    0.24940    1.000
    C266     C        0.05640    0.36300    0.27510    1.000
    C267     C        0.01790    0.35300    0.29370    1.000
    H177     H        0.99210    0.38760    0.28530    1.000
    C268     C        0.02050    0.29200    0.32400    1.000
    H178     H        0.99460    0.27850    0.33440    1.000
    C269     C        0.09390    0.26700    0.32430    1.000
    H179     H        0.12090    0.24170    0.33710    1.000
    C270     C        0.09540    0.31800    0.29070    1.000
    H180     H        0.12120    0.32160    0.27900    1.000
    N91      N        0.76110    0.57800    0.07350    1.000
    N92      N        0.73590    0.70500    0.03510    1.000
    N93      N        0.69910    0.56500    0.02270    1.000
    N94      N        0.86690    0.81600    0.13060    1.000
    N95      N        0.60960    0.78000    0.92810    1.000
    N96      N        0.73640    0.25200    0.07200    1.000
    C271     C        0.76030    0.66200    0.06220    1.000
    C272     C        0.70250    0.65200    0.01460    1.000
    C273     C        0.72900    0.53400    0.04980    1.000
    C274     C        0.79930    0.71700    0.08560    1.000
    C275     C        0.82280    0.68200    0.11520    1.000
    H181     H        0.81580    0.62250    0.12210    1.000
    C276     C        0.86010    0.72600    0.13960    1.000
    H182     H        0.87870    0.69590    0.16030    1.000
    C277     C        0.83720    0.84600    0.10040    1.000
    H183     H        0.84070    0.90690    0.09400    1.000
    C278     C        0.80510    0.80700    0.07870    1.000
    H184     H        0.78600    0.83840    0.05870    1.000
    C279     C        0.66990    0.69800    0.98620    1.000
    C280     C        0.67390    0.79100    0.97440    1.000
    H185     H        0.69890    0.82500    0.98570    1.000
    C281     C        0.64350    0.82600    0.94840    1.000
    H186     H        0.64520    0.88890    0.94330    1.000
    C282     C        0.60400    0.69500    0.93770    1.000
    H187     H        0.57810    0.66460    0.92580    1.000
    C283     C        0.63360    0.65200    0.96360    1.000
    H188     H        0.63060    0.58890    0.96700    1.000
    C284     C        0.73120    0.43200    0.05680    1.000
    C285     C        0.69920    0.37300    0.03500    1.000
    H189     H        0.67520    0.39500    0.01630    1.000
    C286     C        0.70480    0.28200    0.04240    1.000
    H190     H        0.68630    0.23960    0.02660    1.000
    C287     C        0.76270    0.31100    0.09520    1.000
    H191     H        0.78330    0.29020    0.11710    1.000
    C288     C        0.75910    0.39600    0.08700    1.000
    H192     H        0.77780    0.43650    0.10370    1.000
    Zn34     Zn       0.03920    0.66830    0.88420    1.000
    Zn35     Zn       0.22660    0.39530    0.08010    1.000
    I145     I        0.06680    0.50970    0.87380    1.000
    I146     I        0.96530    0.68790    0.90520    1.000
    I147     I        0.20070    0.48690    0.01910    1.000
    I148     I        0.30300    0.41520    0.12220    1.000
    I149     I        0.99421    0.13160    0.40943    1.000
    Zn36     Zn       0.06550    0.15780    0.38415    1.000
    I150     I        0.10644    0.02450    0.35930    1.000
    I151     I        0.04600    0.10010    0.94304    1.000
    I152     I        0.03760    0.19280    0.00968    1.000
    Zn37     Zn       0.71310    0.11600    0.07690    1.000
    I153     I        0.78810    0.08800    0.12040    1.000
    I154     I        0.69280    0.03000    0.01280    1.000
    Zn38     Zn       0.05590    0.64930    0.87590    1.000
    I155     I        0.01860    0.36100    0.10380    1.000
    Zn39     Zn       0.20190    0.40040    0.05570    1.000
    I156     I        0.16230    0.46360    0.99100    1.000
    I157     I        0.27950    0.45360    0.08550    1.000
    Zn40     Zn       0.04290    0.16600    0.38700    1.000
    I158     I        0.24430    0.59600    0.14210    1.000
    I159     I        0.21650    0.71220    0.19330    1.000
    I160     I        0.18560    0.73890    0.14010    1.000
    I161     I        0.26170    0.67200    0.18160    1.000
    I162     I        0.00810    0.00520    0.97680    1.000
    I163     I        0.04880    0.16200    0.96610    1.000
    I164     I        0.07940    0.43200    0.94390    1.000
    I165     I        0.06100    0.40640    0.01760    1.000
    I166     I        0.08100    0.40700    0.93860    1.000
    I167     I        0.04060    0.49200    0.99250    1.000
    I168     I        0.10020    0.13100    0.11660    1.000
    I169     I        0.16190    0.00300    0.13900    1.000
    I170     I        0.05210    0.17670    0.09720    1.000
    I171     I        0.07850    0.00410    0.09150    1.000
    I172     I        0.06140    0.75200    0.05920    1.000
    I173     I        0.13480    0.75620    0.11570    1.000
    I174     I        0.08690    0.80300    0.07380    1.000
    I175     I        0.06980    0.63580    0.04410    1.000
    I176     I        0.96790    0.15000    0.40590    1.000
    I177     I        0.93010    0.29730    0.39830    1.000
    I178     I        0.86290    0.41640    0.38080    1.000
    I179     I        0.93480    0.32930    0.41290    1.000
    I180     I        0.88920    0.48460    0.41500    1.000
    I181     I        0.09400    0.50840    0.85600    1.000
    I182     I        0.11940    0.59690    0.71620    1.000
    I183     I        0.09850    0.54840    0.78670    1.000
    I184     I        0.08110    0.02500    0.36460    1.000
