# CIF file generated by openbabel 3.1.0, see https://openbabel.org
data_I
_chemical_name_common 'image0'
_cell_length_a 36.997
_cell_length_b 7.0551
_cell_length_c 6.2045
_cell_angle_alpha 90
_cell_angle_beta 97.75
_cell_angle_gamma 90
_space_group_name_H-M_alt 'P 1'
_space_group_name_Hall 'P 1'
loop_
    _symmetry_equiv_pos_as_xyz
    x,y,z
loop_
    _atom_site_label
    _atom_site_type_symbol
    _atom_site_fract_x
    _atom_site_fract_y
    _atom_site_fract_z
    _atom_site_occupancy
    O1       O        0.15250    0.05790    0.48570    1.000
    O2       O        0.30001    0.30730    0.79120    1.000
    O3       O        0.27595    0.15320    0.37710    1.000
    C1       C        0.05020    0.06750    0.69130    1.000
    H1       H        0.02910    0.11130    0.59570    1.000
    C2       C        0.08420    0.07130    0.62370    1.000
    H2       H        0.08690    0.11360    0.47880    1.000
    C3       C        0.11452    0.01440    0.76350    1.000
    C4       C        0.11080    0.95130    0.97020    1.000
    H3       H        0.13180    0.90810    0.06650    1.000
    C5       C        0.07670    0.95010    0.03840    1.000
    H4       H        0.07430    0.91390    0.18570    1.000
    C6       C        0.32740    0.08670    0.03280    1.000
    C7       C        0.36080    0.09720    0.95400    1.000
    H5       H        0.36210    0.14890    0.81180    1.000
    C8       C        0.39230    0.03290    0.08060    1.000
    H6       H        0.41530    0.03730    0.02500    1.000
    C9       C        0.39036    0.96240    0.28710    1.000
    H7       H        0.41230    0.92320    0.37720    1.000
    C10      C        0.35700    0.94810    0.36500    1.000
    H8       H        0.35600    0.90110    0.50970    1.000
    C11      C        0.29370    0.14700    0.87500    1.000
    O4       O        0.65250    0.55790    0.48570    1.000
    O5       O        0.80001    0.80730    0.79120    1.000
    O6       O        0.77595    0.65320    0.37710    1.000
    C12      C        0.55020    0.56750    0.69130    1.000
    H9       H        0.52910    0.61130    0.59570    1.000
    C13      C        0.58420    0.57130    0.62370    1.000
    H10      H        0.58690    0.61360    0.47880    1.000
    C14      C        0.61452    0.51440    0.76350    1.000
    C15      C        0.61080    0.45130    0.97020    1.000
    H11      H        0.63180    0.40810    0.06650    1.000
    C16      C        0.57670    0.45010    0.03840    1.000
    H12      H        0.57430    0.41390    0.18570    1.000
    C17      C        0.82740    0.58670    0.03280    1.000
    C18      C        0.86080    0.59720    0.95400    1.000
    H13      H        0.86210    0.64890    0.81180    1.000
    C19      C        0.89230    0.53290    0.08060    1.000
    H14      H        0.91530    0.53730    0.02500    1.000
    C20      C        0.89036    0.46240    0.28710    1.000
    H15      H        0.91230    0.42320    0.37720    1.000
    C21      C        0.85700    0.44810    0.36500    1.000
    H16      H        0.85600    0.40110    0.50970    1.000
    C22      C        0.79370    0.64700    0.87500    1.000
    O7       O        0.84750    0.05790    0.51430    1.000
    O8       O        0.69999    0.30730    0.20880    1.000
    O9       O        0.72405    0.15320    0.62290    1.000
    C23      C        0.94980    0.06750    0.30870    1.000
    H17      H        0.97090    0.11130    0.40430    1.000
    C24      C        0.91580    0.07130    0.37630    1.000
    H18      H        0.91310    0.11360    0.52120    1.000
    C25      C        0.88548    0.01440    0.23650    1.000
    C26      C        0.88920    0.95130    0.02980    1.000
    H19      H        0.86820    0.90810    0.93350    1.000
    C27      C        0.92330    0.95010    0.96160    1.000
    H20      H        0.92570    0.91390    0.81430    1.000
    C28      C        0.67260    0.08670    0.96720    1.000
    C29      C        0.63920    0.09720    0.04600    1.000
    H21      H        0.63790    0.14890    0.18820    1.000
    C30      C        0.60770    0.03290    0.91940    1.000
    H22      H        0.58470    0.03730    0.97500    1.000
    C31      C        0.60964    0.96240    0.71290    1.000
    H23      H        0.58770    0.92320    0.62280    1.000
    C32      C        0.64300    0.94810    0.63500    1.000
    H24      H        0.64400    0.90110    0.49030    1.000
    C33      C        0.70630    0.14700    0.12500    1.000
    O10      O        0.34750    0.55790    0.51430    1.000
    O11      O        0.19999    0.80730    0.20880    1.000
    O12      O        0.22405    0.65320    0.62290    1.000
    C34      C        0.44980    0.56750    0.30870    1.000
    H25      H        0.47090    0.61130    0.40430    1.000
    C35      C        0.41580    0.57130    0.37630    1.000
    H26      H        0.41310    0.61360    0.52120    1.000
    C36      C        0.38548    0.51440    0.23650    1.000
    C37      C        0.38920    0.45130    0.02980    1.000
    H27      H        0.36820    0.40810    0.93350    1.000
    C38      C        0.42330    0.45010    0.96160    1.000
    H28      H        0.42570    0.41390    0.81430    1.000
    C39      C        0.17260    0.58670    0.96720    1.000
    C40      C        0.13920    0.59720    0.04600    1.000
    H29      H        0.13790    0.64890    0.18820    1.000
    C41      C        0.10770    0.53290    0.91940    1.000
    H30      H        0.08470    0.53730    0.97500    1.000
    C42      C        0.10964    0.46240    0.71290    1.000
    H31      H        0.08770    0.42320    0.62280    1.000
    C43      C        0.14300    0.44810    0.63500    1.000
    H32      H        0.14400    0.40110    0.49030    1.000
    C44      C        0.20630    0.64700    0.12500    1.000
    O13      O        0.84750    0.94210    0.51430    1.000
    O14      O        0.69999    0.69270    0.20880    1.000
    O15      O        0.72405    0.84680    0.62290    1.000
    C45      C        0.94980    0.93250    0.30870    1.000
    H33      H        0.97090    0.88870    0.40430    1.000
    C46      C        0.91580    0.92870    0.37630    1.000
    H34      H        0.91310    0.88640    0.52120    1.000
    C47      C        0.88548    0.98560    0.23650    1.000
    C48      C        0.88920    0.04870    0.02980    1.000
    H35      H        0.86820    0.09190    0.93350    1.000
    C49      C        0.92330    0.04990    0.96160    1.000
    H36      H        0.92570    0.08610    0.81430    1.000
    C50      C        0.67260    0.91330    0.96720    1.000
    C51      C        0.63920    0.90280    0.04600    1.000
    H37      H        0.63790    0.85110    0.18820    1.000
    C52      C        0.60770    0.96710    0.91940    1.000
    H38      H        0.58470    0.96270    0.97500    1.000
    C53      C        0.60964    0.03760    0.71290    1.000
    H39      H        0.58770    0.07680    0.62280    1.000
    C54      C        0.64300    0.05190    0.63500    1.000
    H40      H        0.64400    0.09890    0.49030    1.000
    C55      C        0.70630    0.85300    0.12500    1.000
    O16      O        0.34750    0.44210    0.51430    1.000
    O17      O        0.19999    0.19270    0.20880    1.000
    O18      O        0.22405    0.34680    0.62290    1.000
    C56      C        0.44980    0.43250    0.30870    1.000
    H41      H        0.47090    0.38870    0.40430    1.000
    C57      C        0.41580    0.42870    0.37630    1.000
    H42      H        0.41310    0.38640    0.52120    1.000
    C58      C        0.38548    0.48560    0.23650    1.000
    C59      C        0.38920    0.54870    0.02980    1.000
    H43      H        0.36820    0.59190    0.93350    1.000
    C60      C        0.42330    0.54990    0.96160    1.000
    H44      H        0.42570    0.58610    0.81430    1.000
    C61      C        0.17260    0.41330    0.96720    1.000
    C62      C        0.13920    0.40280    0.04600    1.000
    H45      H        0.13790    0.35110    0.18820    1.000
    C63      C        0.10770    0.46710    0.91940    1.000
    H46      H        0.08470    0.46270    0.97500    1.000
    C64      C        0.10964    0.53760    0.71290    1.000
    H47      H        0.08770    0.57680    0.62280    1.000
    C65      C        0.14300    0.55190    0.63500    1.000
    H48      H        0.14400    0.59890    0.49030    1.000
    C66      C        0.20630    0.35300    0.12500    1.000
    O19      O        0.15250    0.94210    0.48570    1.000
    O20      O        0.30001    0.69270    0.79120    1.000
    O21      O        0.27595    0.84680    0.37710    1.000
    C67      C        0.05020    0.93250    0.69130    1.000
    H49      H        0.02910    0.88870    0.59570    1.000
    C68      C        0.08420    0.92870    0.62370    1.000
    H50      H        0.08690    0.88640    0.47880    1.000
    C69      C        0.11452    0.98560    0.76350    1.000
    C70      C        0.11080    0.04870    0.97020    1.000
    H51      H        0.13180    0.09190    0.06650    1.000
    C71      C        0.07670    0.04990    0.03840    1.000
    H52      H        0.07430    0.08610    0.18570    1.000
    C72      C        0.32740    0.91330    0.03280    1.000
    C73      C        0.36080    0.90280    0.95400    1.000
    H53      H        0.36210    0.85110    0.81180    1.000
    C74      C        0.39230    0.96710    0.08060    1.000
    H54      H        0.41530    0.96270    0.02500    1.000
    C75      C        0.39036    0.03760    0.28710    1.000
    H55      H        0.41230    0.07680    0.37720    1.000
    C76      C        0.35700    0.05190    0.36500    1.000
    H56      H        0.35600    0.09890    0.50970    1.000
    C77      C        0.29370    0.85300    0.87500    1.000
    O22      O        0.65250    0.44210    0.48570    1.000
    O23      O        0.80001    0.19270    0.79120    1.000
    O24      O        0.77595    0.34680    0.37710    1.000
    C78      C        0.55020    0.43250    0.69130    1.000
    H57      H        0.52910    0.38870    0.59570    1.000
    C79      C        0.58420    0.42870    0.62370    1.000
    H58      H        0.58690    0.38640    0.47880    1.000
    C80      C        0.61452    0.48560    0.76350    1.000
    C81      C        0.61080    0.54870    0.97020    1.000
    H59      H        0.63180    0.59190    0.06650    1.000
    C82      C        0.57670    0.54990    0.03840    1.000
    H60      H        0.57430    0.58610    0.18570    1.000
    C83      C        0.82740    0.41330    0.03280    1.000
    C84      C        0.86080    0.40280    0.95400    1.000
    H61      H        0.86210    0.35110    0.81180    1.000
    C85      C        0.89230    0.46710    0.08060    1.000
    H62      H        0.91530    0.46270    0.02500    1.000
    C86      C        0.89036    0.53760    0.28710    1.000
    H63      H        0.91230    0.57680    0.37720    1.000
    C87      C        0.85700    0.55190    0.36500    1.000
    H64      H        0.85600    0.59890    0.50970    1.000
    C88      C        0.79370    0.35300    0.87500    1.000
    Nd1      Nd       0.21959    0.00000    0.52149    1.000
    O25      O        0.17930    0.00000    0.80790    1.000
    O26      O        0.26750    0.00000    0.84110    1.000
    N1       N        0.04642    0.00000    0.89870    1.000
    C89      C        0.15080    0.00000    0.67800    1.000
    C90      C        0.32548    0.00000    0.23810    1.000
    C91      C        0.29030    0.00000    0.33180    1.000
    Nd2      Nd       0.71959    0.50000    0.52149    1.000
    O27      O        0.67930    0.50000    0.80790    1.000
    O28      O        0.76750    0.50000    0.84110    1.000
    N2       N        0.54642    0.50000    0.89870    1.000
    C92      C        0.65080    0.50000    0.67800    1.000
    C93      C        0.82548    0.50000    0.23810    1.000
    C94      C        0.79030    0.50000    0.33180    1.000
    Nd3      Nd       0.78041    0.00000    0.47851    1.000
    O29      O        0.82070    0.00000    0.19210    1.000
    O30      O        0.73250    0.00000    0.15890    1.000
    N3       N        0.95358    0.00000    0.10130    1.000
    C95      C        0.84920    0.00000    0.32200    1.000
    C96      C        0.67452    0.00000    0.76190    1.000
    C97      C        0.70970    0.00000    0.66820    1.000
    Nd4      Nd       0.28041    0.50000    0.47851    1.000
    O31      O        0.32070    0.50000    0.19210    1.000
    O32      O        0.23250    0.50000    0.15890    1.000
    N4       N        0.45358    0.50000    0.10130    1.000
    C98      C        0.34920    0.50000    0.32200    1.000
    C99      C        0.17452    0.50000    0.76190    1.000
    C100     C        0.20970    0.50000    0.66820    1.000
    Cu1      Cu       0.00000    0.00000    0.00000    1.000
    Cu2      Cu       0.50000    0.50000    0.00000    1.000
