# CIF file generated by openbabel 3.1.0, see https://openbabel.org
data_I
_chemical_name_common 'image0'
_cell_length_a 13.875
_cell_length_b 12.242
_cell_length_c 18.408
_cell_angle_alpha 90
_cell_angle_beta 129.934
_cell_angle_gamma 90
_space_group_name_H-M_alt 'P 1'
_space_group_name_Hall 'P 1'
loop_
    _symmetry_equiv_pos_as_xyz
    x,y,z
loop_
    _atom_site_label
    _atom_site_type_symbol
    _atom_site_fract_x
    _atom_site_fract_y
    _atom_site_fract_z
    _atom_site_occupancy
    Cd1      Cd       0.04397    0.14904    0.50913    1.000
    N1       N        0.30690    0.12900    0.45280    1.000
    C1       C        0.27020    0.14020    0.50460    1.000
    H1       H        0.32280    0.16220    0.56760    1.000
    C2       C        0.65500    0.15060    0.61200    1.000
    H2       H        0.72410    0.14370    0.67610    1.000
    O1       O        0.88570    0.02300    0.40480    1.000
    C3       C        0.43120    0.14740    0.48520    1.000
    C4       C        0.67040    0.17530    0.54810    1.000
    N2       N        0.94640    0.18160    0.56950    1.000
    N3       N        0.79450    0.18690    0.57730    1.000
    O2       O        0.89960    0.83250    0.97650    1.000
    C5       C        0.82580    0.16840    0.52260    1.000
    H3       H        0.76860    0.14850    0.45910    1.000
    C6       C        0.53420    0.13600    0.57980    1.000
    H4       H        0.52230    0.11830    0.62270    1.000
    O3       O        0.75360    0.88950    0.33020    1.000
    N4       N        0.15050    0.11600    0.45490    1.000
    O4       O        0.07200    0.79060    0.11850    1.000
    C7       C        0.44830    0.17520    0.42210    1.000
    H5       H        0.37930    0.18480    0.35840    1.000
    C8       C        0.99710    0.20440    0.66030    1.000
    H6       H        0.08220    0.21550    0.71040    1.000
    C9       C        0.90430    0.20860    0.66690    1.000
    H7       H        0.91370    0.22300    0.72070    1.000
    C10      C        0.20330    0.09520    0.36470    1.000
    H8       H        0.19960    0.07940    0.31360    1.000
    C11      C        0.10870    0.08910    0.36620    1.000
    H9       H        0.02660    0.06960    0.31490    1.000
    C12      C        0.56840    0.18910    0.45340    1.000
    H10      H        0.58050    0.20760    0.41080    1.000
    C13      C        0.98410    0.85600    0.06050    1.000
    C14      C        0.98840    0.96830    0.09830    1.000
    H11      H        0.03800    0.96290    0.16640    1.000
    H12      H        0.03160    0.01820    0.08680    1.000
    C15      C        0.66660    0.96430    0.12850    1.000
    H13      H        0.61250    0.90600    0.08520    1.000
    H14      H        0.73920    0.92910    0.18520    1.000
    C16      C        0.69030    0.06650    0.25490    1.000
    H15      H        0.73910    0.11940    0.25130    1.000
    H16      H        0.64770    0.10570    0.27290    1.000
    C17      C        0.78080    0.98530    0.33310    1.000
    C18      C        0.79230    0.94140    0.07640    1.000
    H17      H        0.73870    0.89030    0.02470    1.000
    H18      H        0.85110    0.90070    0.13470    1.000
    C19      C        0.86300    0.01680    0.05670    1.000
    H19      H        0.81330    0.02590    0.98880    1.000
    H20      H        0.87500    0.08820    0.08420    1.000
    C20      C        0.71400    0.01960    0.08500    1.000
    H21      H        0.76520    0.08180    0.12340    1.000
    H22      H        0.64360    0.04620    0.02240    1.000
    C21      C        0.59320    0.01990    0.15870    1.000
    H23      H        0.54280    0.96620    0.15980    1.000
    H24      H        0.53810    0.07710    0.11420    1.000
    C22      C        0.09900    0.48200    0.38900    1.000
    H25      H        0.04890    0.47130    0.32180    1.000
    H26      H        0.11550    0.55970    0.39930    1.000
    Cd2      Cd       0.95603    0.64904    0.99087    1.000
    N5       N        0.69310    0.62900    0.04720    1.000
    C23      C        0.72980    0.64020    0.99540    1.000
    H27      H        0.67720    0.66220    0.93240    1.000
    C24      C        0.34500    0.65060    0.88800    1.000
    H28      H        0.27590    0.64370    0.82390    1.000
    O5       O        0.11430    0.52300    0.09520    1.000
    C25      C        0.56880    0.64740    0.01480    1.000
    C26      C        0.32960    0.67530    0.95190    1.000
    N6       N        0.05360    0.68160    0.93050    1.000
    N7       N        0.20550    0.68690    0.92270    1.000
    O6       O        0.10040    0.33250    0.52350    1.000
    C27      C        0.17420    0.66840    0.97740    1.000
    H29      H        0.23140    0.64850    0.04090    1.000
    C28      C        0.46580    0.63600    0.92020    1.000
    H30      H        0.47770    0.61830    0.87730    1.000
    O7       O        0.24640    0.38950    0.16980    1.000
    N8       N        0.84950    0.61600    0.04510    1.000
    O8       O        0.92800    0.29060    0.38150    1.000
    C29      C        0.55170    0.67520    0.07790    1.000
    H31      H        0.62070    0.68480    0.14160    1.000
    C30      C        0.00290    0.70440    0.83970    1.000
    H32      H        0.91780    0.71550    0.78960    1.000
    C31      C        0.09570    0.70860    0.83310    1.000
    H33      H        0.08630    0.72300    0.77930    1.000
    C32      C        0.79670    0.59520    0.13530    1.000
    H34      H        0.80040    0.57940    0.18640    1.000
    C33      C        0.89130    0.58910    0.13380    1.000
    H35      H        0.97340    0.56960    0.18510    1.000
    C34      C        0.43160    0.68910    0.04660    1.000
    H36      H        0.41950    0.70760    0.08920    1.000
    C35      C        0.01590    0.35600    0.43950    1.000
    C36      C        0.01160    0.46830    0.40170    1.000
    H37      H        0.96200    0.46290    0.33360    1.000
    H38      H        0.96840    0.51820    0.41320    1.000
    C37      C        0.33340    0.46430    0.37150    1.000
    H39      H        0.38750    0.40600    0.41480    1.000
    H40      H        0.26080    0.42910    0.31480    1.000
    C38      C        0.30970    0.56650    0.24510    1.000
    H41      H        0.26090    0.61940    0.24870    1.000
    H42      H        0.35230    0.60570    0.22710    1.000
    C39      C        0.21920    0.48530    0.16690    1.000
    C40      C        0.20770    0.44140    0.42360    1.000
    H43      H        0.26130    0.39030    0.47530    1.000
    H44      H        0.14890    0.40070    0.36530    1.000
    C41      C        0.13700    0.51680    0.44330    1.000
    H45      H        0.18670    0.52590    0.51120    1.000
    H46      H        0.12500    0.58820    0.41580    1.000
    C42      C        0.28600    0.51960    0.41500    1.000
    H47      H        0.23480    0.58180    0.37660    1.000
    H48      H        0.35640    0.54620    0.47760    1.000
    C43      C        0.40680    0.51990    0.34130    1.000
    H49      H        0.45720    0.46620    0.34020    1.000
    H50      H        0.46190    0.57710    0.38580    1.000
    C44      C        0.90100    0.98200    0.11100    1.000
    H51      H        0.95110    0.97130    0.17820    1.000
    H52      H        0.88450    0.05970    0.10070    1.000
    Cd3      Cd       0.95603    0.85096    0.49087    1.000
    N9       N        0.69310    0.87100    0.54720    1.000
    C45      C        0.72980    0.85980    0.49540    1.000
    H53      H        0.67720    0.83780    0.43240    1.000
    C46      C        0.34500    0.84940    0.38800    1.000
    H54      H        0.27590    0.85630    0.32390    1.000
    O9       O        0.11430    0.97700    0.59520    1.000
    C47      C        0.56880    0.85260    0.51480    1.000
    C48      C        0.32960    0.82470    0.45190    1.000
    N10      N        0.05360    0.81840    0.43050    1.000
    N11      N        0.20550    0.81310    0.42270    1.000
    O10      O        0.10040    0.16750    0.02350    1.000
    C49      C        0.17420    0.83160    0.47740    1.000
    H55      H        0.23140    0.85150    0.54090    1.000
    C50      C        0.46580    0.86400    0.42020    1.000
    H56      H        0.47770    0.88170    0.37730    1.000
    O11      O        0.24640    0.11050    0.66980    1.000
    N12      N        0.84950    0.88400    0.54510    1.000
    O12      O        0.92800    0.20940    0.88150    1.000
    C51      C        0.55170    0.82480    0.57790    1.000
    H57      H        0.62070    0.81520    0.64160    1.000
    C52      C        0.00290    0.79560    0.33970    1.000
    H58      H        0.91780    0.78450    0.28960    1.000
    C53      C        0.09570    0.79140    0.33310    1.000
    H59      H        0.08630    0.77700    0.27930    1.000
    C54      C        0.79670    0.90480    0.63530    1.000
    H60      H        0.80040    0.92060    0.68640    1.000
    C55      C        0.89130    0.91090    0.63380    1.000
    H61      H        0.97340    0.93040    0.68510    1.000
    C56      C        0.43160    0.81090    0.54660    1.000
    H62      H        0.41950    0.79240    0.58920    1.000
    C57      C        0.01590    0.14400    0.93950    1.000
    C58      C        0.01160    0.03170    0.90170    1.000
    H63      H        0.96200    0.03710    0.83360    1.000
    H64      H        0.96840    0.98180    0.91320    1.000
    C59      C        0.33340    0.03570    0.87150    1.000
    H65      H        0.38750    0.09400    0.91480    1.000
    H66      H        0.26080    0.07090    0.81480    1.000
    C60      C        0.30970    0.93350    0.74510    1.000
    H67      H        0.26090    0.88060    0.74870    1.000
    H68      H        0.35230    0.89430    0.72710    1.000
    C61      C        0.21920    0.01470    0.66690    1.000
    C62      C        0.20770    0.05860    0.92360    1.000
    H69      H        0.26130    0.10970    0.97530    1.000
    H70      H        0.14890    0.09930    0.86530    1.000
    C63      C        0.13700    0.98320    0.94330    1.000
    H71      H        0.18670    0.97410    0.01120    1.000
    H72      H        0.12500    0.91180    0.91580    1.000
    C64      C        0.28600    0.98040    0.91500    1.000
    H73      H        0.23480    0.91820    0.87660    1.000
    H74      H        0.35640    0.95380    0.97760    1.000
    C65      C        0.40680    0.98010    0.84130    1.000
    H75      H        0.45720    0.03380    0.84020    1.000
    H76      H        0.46190    0.92290    0.88580    1.000
    C66      C        0.90100    0.51800    0.61100    1.000
    H77      H        0.95110    0.52870    0.67820    1.000
    H78      H        0.88450    0.44030    0.60070    1.000
    Cd4      Cd       0.04397    0.35096    0.00913    1.000
    N13      N        0.30690    0.37100    0.95280    1.000
    C67      C        0.27020    0.35980    0.00460    1.000
    H79      H        0.32280    0.33780    0.06760    1.000
    C68      C        0.65500    0.34940    0.11200    1.000
    H80      H        0.72410    0.35630    0.17610    1.000
    O13      O        0.88570    0.47700    0.90480    1.000
    C69      C        0.43120    0.35260    0.98520    1.000
    C70      C        0.67040    0.32470    0.04810    1.000
    N14      N        0.94640    0.31840    0.06950    1.000
    N15      N        0.79450    0.31310    0.07730    1.000
    O14      O        0.89960    0.66750    0.47650    1.000
    C71      C        0.82580    0.33160    0.02260    1.000
    H81      H        0.76860    0.35150    0.95910    1.000
    C72      C        0.53420    0.36400    0.07980    1.000
    H82      H        0.52230    0.38170    0.12270    1.000
    O15      O        0.75360    0.61050    0.83020    1.000
    N16      N        0.15050    0.38400    0.95490    1.000
    O16      O        0.07200    0.70940    0.61850    1.000
    C73      C        0.44830    0.32480    0.92210    1.000
    H83      H        0.37930    0.31520    0.85840    1.000
    C74      C        0.99710    0.29560    0.16030    1.000
    H84      H        0.08220    0.28450    0.21040    1.000
    C75      C        0.90430    0.29140    0.16690    1.000
    H85      H        0.91370    0.27700    0.22070    1.000
    C76      C        0.20330    0.40480    0.86470    1.000
    H86      H        0.19960    0.42060    0.81360    1.000
    C77      C        0.10870    0.41090    0.86620    1.000
    H87      H        0.02660    0.43040    0.81490    1.000
    C78      C        0.56840    0.31090    0.95340    1.000
    H88      H        0.58050    0.29240    0.91080    1.000
    C79      C        0.98410    0.64400    0.56050    1.000
    C80      C        0.98840    0.53170    0.59830    1.000
    H89      H        0.03800    0.53710    0.66640    1.000
    H90      H        0.03160    0.48180    0.58680    1.000
    C81      C        0.66660    0.53570    0.62850    1.000
    H91      H        0.61250    0.59400    0.58520    1.000
    H92      H        0.73920    0.57090    0.68520    1.000
    C82      C        0.69030    0.43350    0.75490    1.000
    H93      H        0.73910    0.38060    0.75130    1.000
    H94      H        0.64770    0.39430    0.77290    1.000
    C83      C        0.78080    0.51470    0.83310    1.000
    C84      C        0.79230    0.55860    0.57640    1.000
    H95      H        0.73870    0.60970    0.52470    1.000
    H96      H        0.85110    0.59930    0.63470    1.000
    C85      C        0.86300    0.48320    0.55670    1.000
    H97      H        0.81330    0.47410    0.48880    1.000
    H98      H        0.87500    0.41180    0.58420    1.000
    C86      C        0.71400    0.48040    0.58500    1.000
    H99      H        0.76520    0.41820    0.62340    1.000
    H100     H        0.64360    0.45380    0.52240    1.000
    C87      C        0.59320    0.48010    0.65870    1.000
    H101     H        0.54280    0.53380    0.65980    1.000
    H102     H        0.53810    0.42290    0.61420    1.000
    C88      C        0.09900    0.01800    0.88900    1.000
    H103     H        0.04890    0.02870    0.82180    1.000
    H104     H        0.11550    0.94030    0.89930    1.000
