# CIF file generated by openbabel 3.1.0, see https://openbabel.org
data_I
_chemical_name_common 'image0'
_cell_length_a 9.2529
_cell_length_b 10.6355
_cell_length_c 11.0493
_cell_angle_alpha 63.622
_cell_angle_beta 86.489
_cell_angle_gamma 74.907
_space_group_name_H-M_alt 'P 1'
_space_group_name_Hall 'P 1'
loop_
    _symmetry_equiv_pos_as_xyz
    x,y,z
loop_
    _atom_site_label
    _atom_site_type_symbol
    _atom_site_fract_x
    _atom_site_fract_y
    _atom_site_fract_z
    _atom_site_occupancy
    Co1      Co       0.22196    0.27529    0.48166    1.000
    O1       O        0.47340    0.30900    0.66770    1.000
    O2       O        0.32420    0.17650    0.66080    1.000
    O3       O        0.49040    0.41710    0.35920    1.000
    O4       O        0.31630    0.33390    0.30890    1.000
    N1       N        0.97790    0.33850    0.49050    1.000
    N2       N        0.80550    0.51250    0.52130    1.000
    N3       N        0.73440    0.41410    0.52130    1.000
    N4       N        0.77490    0.92860    0.50840    1.000
    C1       C        0.41660    0.20560    0.71800    1.000
    C2       C        0.46080    0.09850    0.86480    1.000
    C3       C        0.55650    0.12090    0.94040    1.000
    H1       H        0.59400    0.20240    0.90080    1.000
    C4       C        0.59690    0.02210    0.07530    1.000
    H2       H        0.66240    0.03690    0.12520    1.000
    C5       C        0.42120    0.39740    0.27990    1.000
    C6       C        0.46290    0.44920    0.13430    1.000
    C7       C        0.57590    0.51870    0.09330    1.000
    H3       H        0.62700    0.53180    0.15490    1.000
    C8       C        0.61340    0.56940    0.95830    1.000
    H4       H        0.69020    0.61590    0.93030    1.000
    C9       C        0.94540    0.46320    0.50180    1.000
    C10      C        0.83920    0.31240    0.50240    1.000
    C11      C        0.81030    0.18280    0.50170    1.000
    C12      C        0.84760    0.15040    0.39250    1.000
    H5       H        0.88520    0.21340    0.31620    1.000
    C13      C        0.82750    0.02300    0.40040    1.000
    H6       H        0.85150    0.00180    0.32730    1.000
    C14      C        0.73770    0.96260    0.61120    1.000
    H7       H        0.70000    0.89840    0.68660    1.000
    C15      C        0.75300    0.08880    0.61030    1.000
    H8       H        0.72450    0.10930    0.68310    1.000
    Co2      Co       0.77804    0.72471    0.51834    1.000
    O5       O        0.52660    0.69100    0.33230    1.000
    O6       O        0.67580    0.82350    0.33920    1.000
    O7       O        0.50960    0.58290    0.64080    1.000
    O8       O        0.68370    0.66610    0.69110    1.000
    N5       N        0.02210    0.66150    0.50950    1.000
    N6       N        0.19450    0.48750    0.47870    1.000
    N7       N        0.26560    0.58590    0.47870    1.000
    N8       N        0.22510    0.07140    0.49160    1.000
    C16      C        0.58340    0.79440    0.28200    1.000
    C17      C        0.53920    0.90150    0.13520    1.000
    C18      C        0.44350    0.87910    0.05960    1.000
    H9       H        0.40600    0.79760    0.09920    1.000
    C19      C        0.40310    0.97790    0.92470    1.000
    H10      H        0.33760    0.96310    0.87480    1.000
    C20      C        0.57880    0.60260    0.72010    1.000
    C21      C        0.53710    0.55080    0.86570    1.000
    C22      C        0.42410    0.48130    0.90670    1.000
    H11      H        0.37300    0.46820    0.84510    1.000
    C23      C        0.38660    0.43060    0.04170    1.000
    H12      H        0.30980    0.38410    0.06970    1.000
    C24      C        0.05460    0.53680    0.49820    1.000
    C25      C        0.16080    0.68760    0.49760    1.000
    C26      C        0.18970    0.81720    0.49830    1.000
    C27      C        0.15240    0.84960    0.60750    1.000
    H13      H        0.11480    0.78660    0.68380    1.000
    C28      C        0.17250    0.97700    0.59960    1.000
    H14      H        0.14850    0.99820    0.67270    1.000
    C29      C        0.26230    0.03740    0.38880    1.000
    H15      H        0.30000    0.10160    0.31340    1.000
    C30      C        0.24700    0.91120    0.38970    1.000
    H16      H        0.27550    0.89070    0.31690    1.000
    Co3      Co       0.50000    0.50000    0.50000    1.000
