# CIF file generated by openbabel 3.1.0, see https://openbabel.org
data_I
_chemical_name_common 'image0'
_cell_length_a 8.6191
_cell_length_b 17.8031
_cell_length_c 9.0257
_cell_angle_alpha 90
_cell_angle_beta 107.357
_cell_angle_gamma 90
_space_group_name_H-M_alt 'P 1'
_space_group_name_Hall 'P 1'
loop_
    _symmetry_equiv_pos_as_xyz
    x,y,z
loop_
    _atom_site_label
    _atom_site_type_symbol
    _atom_site_fract_x
    _atom_site_fract_y
    _atom_site_fract_z
    _atom_site_occupancy
    P1       P        0.34760    0.42755    0.36100    1.000
    P2       P        0.80689    0.29217    0.47431    1.000
    P3       P        0.26634    0.16905    0.49610    1.000
    Al1      Al       0.07720    0.29557    0.28743    1.000
    Al2      Al       0.13704    0.10962    0.16094    1.000
    Al3      Al       0.02365    0.17754    0.69316    1.000
    O1       O        0.04480    0.20608    0.17950    1.000
    H1       H        0.00000    0.21430    0.08720    1.000
    O2       O        0.19310    0.38098    0.30840    1.000
    O3       O        0.24660    0.25081    0.43840    1.000
    O4       O        0.94570    0.30645    0.40750    1.000
    O5       O        0.43270    0.15892    0.61320    1.000
    O6       O        0.46150    0.40524    0.26320    1.000
    O7       O        0.84940    0.22697    0.59160    1.000
    O8       O        0.13230    0.14924    0.57060    1.000
    O9       O        0.65090    0.26930    0.34530    1.000
    O10      O        0.24890    0.11346    0.36320    1.000
    O11      O        0.43750    0.41341    0.53190    1.000
    O12      O        0.30080    0.50925    0.33240    1.000
    O13      O        0.77320    0.36298    0.55330    1.000
    P4       P        0.15240    0.92755    0.13900    1.000
    P5       P        0.69311    0.79217    0.02569    1.000
    P6       P        0.23366    0.66905    0.00390    1.000
    Al4      Al       0.42280    0.79557    0.21257    1.000
    Al5      Al       0.36296    0.60962    0.33906    1.000
    Al6      Al       0.47635    0.67754    0.80684    1.000
    O14      O        0.45520    0.70608    0.32050    1.000
    H2       H        0.50000    0.71430    0.41280    1.000
    O15      O        0.30690    0.88098    0.19160    1.000
    O16      O        0.25340    0.75081    0.06160    1.000
    O17      O        0.55430    0.80645    0.09250    1.000
    O18      O        0.06730    0.65892    0.88680    1.000
    O19      O        0.03850    0.90524    0.23680    1.000
    O20      O        0.65060    0.72697    0.90840    1.000
    O21      O        0.36770    0.64924    0.92940    1.000
    O22      O        0.84910    0.76930    0.15470    1.000
    O23      O        0.25110    0.61346    0.13680    1.000
    O24      O        0.06250    0.91341    0.96810    1.000
    O25      O        0.19920    0.00925    0.16760    1.000
    O26      O        0.72680    0.86298    0.94670    1.000
    P7       P        0.65240    0.57245    0.63900    1.000
    P8       P        0.19311    0.70783    0.52569    1.000
    P9       P        0.73366    0.83095    0.50390    1.000
    Al7      Al       0.92280    0.70443    0.71257    1.000
    Al8      Al       0.86296    0.89038    0.83906    1.000
    Al9      Al       0.97635    0.82246    0.30684    1.000
    O27      O        0.95520    0.79392    0.82050    1.000
    H3       H        0.00000    0.78570    0.91280    1.000
    O28      O        0.80690    0.61902    0.69160    1.000
    O29      O        0.75340    0.74919    0.56160    1.000
    O30      O        0.05430    0.69355    0.59250    1.000
    O31      O        0.56730    0.84108    0.38680    1.000
    O32      O        0.53850    0.59476    0.73680    1.000
    O33      O        0.15060    0.77303    0.40840    1.000
    O34      O        0.86770    0.85076    0.42940    1.000
    O35      O        0.34910    0.73070    0.65470    1.000
    O36      O        0.75110    0.88654    0.63680    1.000
    O37      O        0.56250    0.58659    0.46810    1.000
    O38      O        0.69920    0.49075    0.66760    1.000
    O39      O        0.22680    0.63702    0.44670    1.000
    P10      P        0.84760    0.07245    0.86100    1.000
    P11      P        0.30689    0.20783    0.97431    1.000
    P12      P        0.76634    0.33095    0.99610    1.000
    Al10     Al       0.57720    0.20443    0.78743    1.000
    Al11     Al       0.63704    0.39038    0.66094    1.000
    Al12     Al       0.52365    0.32246    0.19316    1.000
    O40      O        0.54480    0.29392    0.67950    1.000
    H4       H        0.50000    0.28570    0.58720    1.000
    O41      O        0.69310    0.11902    0.80840    1.000
    O42      O        0.74660    0.24919    0.93840    1.000
    O43      O        0.44570    0.19355    0.90750    1.000
    O44      O        0.93270    0.34108    0.11320    1.000
    O45      O        0.96150    0.09476    0.76320    1.000
    O46      O        0.34940    0.27303    0.09160    1.000
    O47      O        0.63230    0.35076    0.07060    1.000
    O48      O        0.15090    0.23070    0.84530    1.000
    O49      O        0.74890    0.38654    0.86320    1.000
    O50      O        0.93750    0.08659    0.03190    1.000
    O51      O        0.80080    0.99075    0.83240    1.000
    O52      O        0.27320    0.13702    0.05330    1.000
