# CIF file generated by openbabel 3.1.0, see https://openbabel.org
data_I
_chemical_name_common 'image0'
_cell_length_a 18.586
_cell_length_b 18.586
_cell_length_c 38.461
_cell_angle_alpha 90
_cell_angle_beta 90
_cell_angle_gamma 120
_space_group_name_H-M_alt 'P 1'
_space_group_name_Hall 'P 1'
loop_
    _symmetry_equiv_pos_as_xyz
    x,y,z
loop_
    _atom_site_label
    _atom_site_type_symbol
    _atom_site_fract_x
    _atom_site_fract_y
    _atom_site_fract_z
    _atom_site_occupancy
    C1       C        0.35980    0.90730    0.97298    1.000
    C2       C        0.28060    0.84910    0.95601    1.000
    C3       C        0.26520    0.86360    0.92230    1.000
    H1       H        0.30400    0.91340    0.91080    1.000
    C4       C        0.54780    0.90740    0.97298    1.000
    C5       C        0.56870    0.84900    0.95606    1.000
    C6       C        0.55370    0.77670    0.97311    1.000
    H2       H        0.53340    0.76650    0.99630    1.000
    C7       C        0.59840    0.86360    0.92225    1.000
    H3       H        0.60900    0.91320    0.91080    1.000
    C8       C        0.61270    0.80650    0.90501    1.000
    C9       C        0.64050    0.82030    0.86797    1.000
    C10      C        0.70360    0.89680    0.85700    1.000
    C11      C        0.70470    0.80740    0.85750    1.000
    C12      C        0.60490    0.84890    0.84440    1.000
    H4       H        0.56410    0.86190    0.85200    1.000
    C13      C        0.60500    0.75540    0.84460    1.000
    H5       H        0.56420    0.70150    0.85210    1.000
    N1       N        0.75780    0.78960    0.88080    1.000
    N2       N        0.75680    0.96900    0.88080    1.000
    O1       O        0.51812    0.88967    0.00346    1.000
    O2       O        0.58856    0.03039    0.04400    1.000
    O3       O        0.44177    0.03045    0.04401    1.000
    O4       O        0.37163    0.88979    0.00349    1.000
    Cu1      Cu       0.47633    0.95271    0.02832    1.000
    C14      C        0.02647    0.24063    0.30631    1.000
    C15      C        0.94727    0.18243    0.28934    1.000
    C16      C        0.93187    0.19693    0.25563    1.000
    H6       H        0.97067    0.24673    0.24413    1.000
    C17      C        0.21447    0.24073    0.30631    1.000
    C18      C        0.23537    0.18233    0.28939    1.000
    C19      C        0.22037    0.11003    0.30644    1.000
    H7       H        0.20007    0.09983    0.32963    1.000
    C20      C        0.26507    0.19693    0.25558    1.000
    H8       H        0.27567    0.24653    0.24413    1.000
    C21      C        0.27937    0.13983    0.23834    1.000
    C22      C        0.30717    0.15363    0.20130    1.000
    C23      C        0.37027    0.23013    0.19033    1.000
    C24      C        0.37137    0.14073    0.19083    1.000
    C25      C        0.27157    0.18223    0.17773    1.000
    H9       H        0.23077    0.19523    0.18533    1.000
    C26      C        0.27167    0.08873    0.17793    1.000
    H10      H        0.23087    0.03483    0.18543    1.000
    N3       N        0.42447    0.12293    0.21413    1.000
    N4       N        0.42347    0.30233    0.21413    1.000
    O5       O        0.18479    0.22300    0.33679    1.000
    O6       O        0.25523    0.36372    0.37733    1.000
    O7       O        0.10844    0.36378    0.37734    1.000
    O8       O        0.03830    0.22312    0.33682    1.000
    Cu2      Cu       0.14300    0.28604    0.36165    1.000
    C27      C        0.69313    0.57397    0.63965    1.000
    C28      C        0.61393    0.51577    0.62268    1.000
    C29      C        0.59853    0.53027    0.58897    1.000
    H11      H        0.63733    0.58007    0.57747    1.000
    C30      C        0.88113    0.57407    0.63965    1.000
    C31      C        0.90203    0.51567    0.62273    1.000
    C32      C        0.88703    0.44337    0.63978    1.000
    H12      H        0.86673    0.43317    0.66297    1.000
    C33      C        0.93173    0.53027    0.58892    1.000
    H13      H        0.94233    0.57987    0.57747    1.000
    C34      C        0.94603    0.47317    0.57168    1.000
    C35      C        0.97383    0.48697    0.53464    1.000
    C36      C        0.03693    0.56347    0.52367    1.000
    C37      C        0.03803    0.47407    0.52417    1.000
    C38      C        0.93823    0.51557    0.51107    1.000
    H14      H        0.89743    0.52857    0.51867    1.000
    C39      C        0.93833    0.42207    0.51127    1.000
    H15      H        0.89753    0.36817    0.51877    1.000
    N5       N        0.09113    0.45627    0.54747    1.000
    N6       N        0.09013    0.63567    0.54747    1.000
    O9       O        0.85145    0.55634    0.67013    1.000
    O10      O        0.92189    0.69706    0.71067    1.000
    O11      O        0.77510    0.69712    0.71068    1.000
    O12      O        0.70496    0.55646    0.67016    1.000
    Cu3      Cu       0.80966    0.61938    0.69498    1.000
    C40      C        0.09270    0.45250    0.97298    1.000
    C41      C        0.15090    0.43150    0.95601    1.000
    C42      C        0.13640    0.40160    0.92230    1.000
    H16      H        0.08660    0.39060    0.91080    1.000
    C43      C        0.09260    0.64040    0.97298    1.000
    C44      C        0.15100    0.71970    0.95606    1.000
    C45      C        0.22330    0.77700    0.97311    1.000
    H17      H        0.23350    0.76690    0.99630    1.000
    C46      C        0.13640    0.73480    0.92225    1.000
    H18      H        0.08680    0.69580    0.91080    1.000
    C47      C        0.19350    0.80620    0.90501    1.000
    C48      C        0.17970    0.82020    0.86797    1.000
    C49      C        0.10320    0.80680    0.85700    1.000
    C50      C        0.19260    0.89730    0.85750    1.000
    C51      C        0.15110    0.75600    0.84440    1.000
    H19      H        0.13810    0.70220    0.85200    1.000
    C52      C        0.24460    0.84960    0.84460    1.000
    H20      H        0.29850    0.86270    0.85210    1.000
    N7       N        0.21040    0.96820    0.88080    1.000
    N8       N        0.03100    0.78780    0.88080    1.000
    O13      O        0.11033    0.62845    0.00346    1.000
    O14      O        0.96961    0.55817    0.04400    1.000
    O15      O        0.96955    0.41132    0.04401    1.000
    O16      O        0.11021    0.48184    0.00349    1.000
    Cu4      Cu       0.04729    0.52362    0.02832    1.000
    C53      C        0.75937    0.78583    0.30631    1.000
    C54      C        0.81757    0.76483    0.28934    1.000
    C55      C        0.80307    0.73493    0.25563    1.000
    H21      H        0.75327    0.72393    0.24413    1.000
    C56      C        0.75927    0.97373    0.30631    1.000
    C57      C        0.81767    0.05303    0.28939    1.000
    C58      C        0.88997    0.11033    0.30644    1.000
    H22      H        0.90017    0.10023    0.32963    1.000
    C59      C        0.80307    0.06813    0.25558    1.000
    H23      H        0.75347    0.02913    0.24413    1.000
    C60      C        0.86017    0.13953    0.23834    1.000
    C61      C        0.84637    0.15353    0.20130    1.000
    C62      C        0.76987    0.14013    0.19033    1.000
    C63      C        0.85927    0.23063    0.19083    1.000
    C64      C        0.81777    0.08933    0.17773    1.000
    H24      H        0.80477    0.03553    0.18533    1.000
    C65      C        0.91127    0.18293    0.17793    1.000
    H25      H        0.96517    0.19603    0.18543    1.000
    N9       N        0.87707    0.30153    0.21413    1.000
    N10      N        0.69767    0.12113    0.21413    1.000
    O17      O        0.77700    0.96178    0.33679    1.000
    O18      O        0.63628    0.89150    0.37733    1.000
    O19      O        0.63622    0.74465    0.37734    1.000
    O20      O        0.77688    0.81517    0.33682    1.000
    Cu5      Cu       0.71396    0.85695    0.36165    1.000
    C66      C        0.42603    0.11917    0.63965    1.000
    C67      C        0.48423    0.09817    0.62268    1.000
    C68      C        0.46973    0.06827    0.58897    1.000
    H26      H        0.41993    0.05727    0.57747    1.000
    C69      C        0.42593    0.30707    0.63965    1.000
    C70      C        0.48433    0.38637    0.62273    1.000
    C71      C        0.55663    0.44367    0.63978    1.000
    H27      H        0.56683    0.43357    0.66297    1.000
    C72      C        0.46973    0.40147    0.58892    1.000
    H28      H        0.42013    0.36247    0.57747    1.000
    C73      C        0.52683    0.47287    0.57168    1.000
    C74      C        0.51303    0.48687    0.53464    1.000
    C75      C        0.43653    0.47347    0.52367    1.000
    C76      C        0.52593    0.56397    0.52417    1.000
    C77      C        0.48443    0.42267    0.51107    1.000
    H29      H        0.47143    0.36887    0.51867    1.000
    C78      C        0.57793    0.51627    0.51127    1.000
    H30      H        0.63183    0.52937    0.51877    1.000
    N11      N        0.54373    0.63487    0.54747    1.000
    N12      N        0.36433    0.45447    0.54747    1.000
    O21      O        0.44366    0.29512    0.67013    1.000
    O22      O        0.30294    0.22484    0.71067    1.000
    O23      O        0.30288    0.07799    0.71068    1.000
    O24      O        0.44354    0.14851    0.67016    1.000
    Cu6      Cu       0.38062    0.19029    0.69498    1.000
    C79      C        0.54750    0.64020    0.97298    1.000
    C80      C        0.56850    0.71940    0.95601    1.000
    C81      C        0.59840    0.73480    0.92230    1.000
    H31      H        0.60940    0.69600    0.91080    1.000
    C82      C        0.35960    0.45220    0.97298    1.000
    C83      C        0.28030    0.43130    0.95606    1.000
    C84      C        0.22300    0.44630    0.97311    1.000
    H32      H        0.23310    0.46660    0.99630    1.000
    C85      C        0.26520    0.40160    0.92225    1.000
    H33      H        0.30420    0.39100    0.91080    1.000
    C86      C        0.19380    0.38730    0.90501    1.000
    C87      C        0.17980    0.35950    0.86797    1.000
    C88      C        0.19320    0.29640    0.85700    1.000
    C89      C        0.10270    0.29530    0.85750    1.000
    C90      C        0.24400    0.39510    0.84440    1.000
    H34      H        0.29780    0.43590    0.85200    1.000
    C91      C        0.15040    0.39500    0.84460    1.000
    H35      H        0.13730    0.43580    0.85210    1.000
    N13      N        0.03180    0.24220    0.88080    1.000
    N14      N        0.21220    0.24320    0.88080    1.000
    O25      O        0.37155    0.48188    0.00346    1.000
    O26      O        0.44183    0.41144    0.04400    1.000
    O27      O        0.58868    0.55823    0.04401    1.000
    O28      O        0.51816    0.62837    0.00349    1.000
    Cu7      Cu       0.47638    0.52367    0.02832    1.000
    C92      C        0.21417    0.97353    0.30631    1.000
    C93      C        0.23517    0.05273    0.28934    1.000
    C94      C        0.26507    0.06813    0.25563    1.000
    H36      H        0.27607    0.02933    0.24413    1.000
    C95      C        0.02627    0.78553    0.30631    1.000
    C96      C        0.94697    0.76463    0.28939    1.000
    C97      C        0.88967    0.77963    0.30644    1.000
    H37      H        0.89977    0.79993    0.32963    1.000
    C98      C        0.93187    0.73493    0.25558    1.000
    H38      H        0.97087    0.72433    0.24413    1.000
    C99      C        0.86047    0.72063    0.23834    1.000
    C100     C        0.84647    0.69283    0.20130    1.000
    C101     C        0.85987    0.62973    0.19033    1.000
    C102     C        0.76937    0.62863    0.19083    1.000
    C103     C        0.91067    0.72843    0.17773    1.000
    H39      H        0.96447    0.76923    0.18533    1.000
    C104     C        0.81707    0.72833    0.17793    1.000
    H40      H        0.80397    0.76913    0.18543    1.000
    N15      N        0.69847    0.57553    0.21413    1.000
    N16      N        0.87887    0.57653    0.21413    1.000
    O29      O        0.03822    0.81521    0.33679    1.000
    O30      O        0.10850    0.74477    0.37733    1.000
    O31      O        0.25535    0.89156    0.37734    1.000
    O32      O        0.18483    0.96170    0.33682    1.000
    Cu8      Cu       0.14305    0.85700    0.36165    1.000
    C105     C        0.88083    0.30687    0.63965    1.000
    C106     C        0.90183    0.38607    0.62268    1.000
    C107     C        0.93173    0.40147    0.58897    1.000
    H41      H        0.94273    0.36267    0.57747    1.000
    C108     C        0.69293    0.11887    0.63965    1.000
    C109     C        0.61363    0.09797    0.62273    1.000
    C110     C        0.55633    0.11297    0.63978    1.000
    H42      H        0.56643    0.13327    0.66297    1.000
    C111     C        0.59853    0.06827    0.58892    1.000
    H43      H        0.63753    0.05767    0.57747    1.000
    C112     C        0.52713    0.05397    0.57168    1.000
    C113     C        0.51313    0.02617    0.53464    1.000
    C114     C        0.52653    0.96307    0.52367    1.000
    C115     C        0.43603    0.96197    0.52417    1.000
    C116     C        0.57733    0.06177    0.51107    1.000
    H44      H        0.63113    0.10257    0.51867    1.000
    C117     C        0.48373    0.06167    0.51127    1.000
    H45      H        0.47063    0.10247    0.51877    1.000
    N17      N        0.36513    0.90887    0.54747    1.000
    N18      N        0.54553    0.90987    0.54747    1.000
    O33      O        0.70488    0.14855    0.67013    1.000
    O34      O        0.77516    0.07811    0.71067    1.000
    O35      O        0.92201    0.22490    0.71068    1.000
    O36      O        0.85149    0.29504    0.67016    1.000
    Cu9      Cu       0.80971    0.19034    0.69498    1.000
    C118     C        0.64020    0.09270    0.02702    1.000
    C119     C        0.71940    0.15090    0.04399    1.000
    C120     C        0.73480    0.13640    0.07770    1.000
    H46      H        0.69600    0.08660    0.08920    1.000
    C121     C        0.45220    0.09260    0.02702    1.000
    C122     C        0.43130    0.15100    0.04394    1.000
    C123     C        0.44630    0.22330    0.02689    1.000
    H47      H        0.46660    0.23350    0.00370    1.000
    C124     C        0.40160    0.13640    0.07775    1.000
    H48      H        0.39100    0.08680    0.08920    1.000
    C125     C        0.38730    0.19350    0.09499    1.000
    C126     C        0.35950    0.17970    0.13203    1.000
    C127     C        0.29640    0.10320    0.14300    1.000
    C128     C        0.29530    0.19260    0.14250    1.000
    C129     C        0.39510    0.15110    0.15560    1.000
    H49      H        0.43590    0.13810    0.14800    1.000
    C130     C        0.39500    0.24460    0.15540    1.000
    H50      H        0.43580    0.29850    0.14790    1.000
    N19      N        0.24220    0.21040    0.11920    1.000
    N20      N        0.24320    0.03100    0.11920    1.000
    O37      O        0.48188    0.11033    0.99654    1.000
    O38      O        0.41144    0.96961    0.95600    1.000
    O39      O        0.55823    0.96955    0.95599    1.000
    O40      O        0.62837    0.11021    0.99651    1.000
    Cu10     Cu       0.52367    0.04729    0.97168    1.000
    C131     C        0.30687    0.42603    0.36035    1.000
    C132     C        0.38607    0.48423    0.37732    1.000
    C133     C        0.40147    0.46973    0.41103    1.000
    H51      H        0.36267    0.41993    0.42253    1.000
    C134     C        0.11887    0.42593    0.36035    1.000
    C135     C        0.09797    0.48433    0.37727    1.000
    C136     C        0.11297    0.55663    0.36022    1.000
    H52      H        0.13327    0.56683    0.33703    1.000
    C137     C        0.06827    0.46973    0.41108    1.000
    H53      H        0.05767    0.42013    0.42253    1.000
    C138     C        0.05397    0.52683    0.42832    1.000
    C139     C        0.02617    0.51303    0.46536    1.000
    C140     C        0.96307    0.43653    0.47633    1.000
    C141     C        0.96197    0.52593    0.47583    1.000
    C142     C        0.06177    0.48443    0.48893    1.000
    H54      H        0.10257    0.47143    0.48133    1.000
    C143     C        0.06167    0.57793    0.48873    1.000
    H55      H        0.10247    0.63183    0.48123    1.000
    N21      N        0.90887    0.54373    0.45253    1.000
    N22      N        0.90987    0.36433    0.45253    1.000
    O41      O        0.14855    0.44366    0.32987    1.000
    O42      O        0.07811    0.30294    0.28933    1.000
    O43      O        0.22490    0.30288    0.28932    1.000
    O44      O        0.29504    0.44354    0.32984    1.000
    Cu11     Cu       0.19034    0.38062    0.30502    1.000
    C144     C        0.97353    0.75937    0.69369    1.000
    C145     C        0.05273    0.81757    0.71066    1.000
    C146     C        0.06813    0.80307    0.74437    1.000
    H56      H        0.02933    0.75327    0.75587    1.000
    C147     C        0.78553    0.75927    0.69369    1.000
    C148     C        0.76463    0.81767    0.71061    1.000
    C149     C        0.77963    0.88997    0.69356    1.000
    H57      H        0.79993    0.90017    0.67037    1.000
    C150     C        0.73493    0.80307    0.74442    1.000
    H58      H        0.72433    0.75347    0.75587    1.000
    C151     C        0.72063    0.86017    0.76166    1.000
    C152     C        0.69283    0.84637    0.79870    1.000
    C153     C        0.62973    0.76987    0.80967    1.000
    C154     C        0.62863    0.85927    0.80917    1.000
    C155     C        0.72843    0.81777    0.82227    1.000
    H59      H        0.76923    0.80477    0.81467    1.000
    C156     C        0.72833    0.91127    0.82207    1.000
    H60      H        0.76913    0.96517    0.81457    1.000
    N23      N        0.57553    0.87707    0.78587    1.000
    N24      N        0.57653    0.69767    0.78587    1.000
    O45      O        0.81521    0.77700    0.66321    1.000
    O46      O        0.74477    0.63628    0.62267    1.000
    O47      O        0.89156    0.63622    0.62266    1.000
    O48      O        0.96170    0.77688    0.66318    1.000
    Cu12     Cu       0.85700    0.71396    0.63835    1.000
    C157     C        0.90730    0.54750    0.02702    1.000
    C158     C        0.84910    0.56850    0.04399    1.000
    C159     C        0.86360    0.59840    0.07770    1.000
    H61      H        0.91340    0.60940    0.08920    1.000
    C160     C        0.90740    0.35960    0.02702    1.000
    C161     C        0.84900    0.28030    0.04394    1.000
    C162     C        0.77670    0.22300    0.02689    1.000
    H62      H        0.76650    0.23310    0.00370    1.000
    C163     C        0.86360    0.26520    0.07775    1.000
    H63      H        0.91320    0.30420    0.08920    1.000
    C164     C        0.80650    0.19380    0.09499    1.000
    C165     C        0.82030    0.17980    0.13203    1.000
    C166     C        0.89680    0.19320    0.14300    1.000
    C167     C        0.80740    0.10270    0.14250    1.000
    C168     C        0.84890    0.24400    0.15560    1.000
    H64      H        0.86190    0.29780    0.14800    1.000
    C169     C        0.75540    0.15040    0.15540    1.000
    H65      H        0.70150    0.13730    0.14790    1.000
    N25      N        0.78960    0.03180    0.11920    1.000
    N26      N        0.96900    0.21220    0.11920    1.000
    O49      O        0.88967    0.37155    0.99654    1.000
    O50      O        0.03039    0.44183    0.95600    1.000
    O51      O        0.03045    0.58868    0.95599    1.000
    O52      O        0.88979    0.51816    0.99651    1.000
    Cu13     Cu       0.95271    0.47638    0.97168    1.000
    C170     C        0.57397    0.88083    0.36035    1.000
    C171     C        0.51577    0.90183    0.37732    1.000
    C172     C        0.53027    0.93173    0.41103    1.000
    H66      H        0.58007    0.94273    0.42253    1.000
    C173     C        0.57407    0.69293    0.36035    1.000
    C174     C        0.51567    0.61363    0.37727    1.000
    C175     C        0.44337    0.55633    0.36022    1.000
    H67      H        0.43317    0.56643    0.33703    1.000
    C176     C        0.53027    0.59853    0.41108    1.000
    H68      H        0.57987    0.63753    0.42253    1.000
    C177     C        0.47317    0.52713    0.42832    1.000
    C178     C        0.48697    0.51313    0.46536    1.000
    C179     C        0.56347    0.52653    0.47633    1.000
    C180     C        0.47407    0.43603    0.47583    1.000
    C181     C        0.51557    0.57733    0.48893    1.000
    H69      H        0.52857    0.63113    0.48133    1.000
    C182     C        0.42207    0.48373    0.48873    1.000
    H70      H        0.36817    0.47063    0.48123    1.000
    N27      N        0.45627    0.36513    0.45253    1.000
    N28      N        0.63567    0.54553    0.45253    1.000
    O53      O        0.55634    0.70488    0.32987    1.000
    O54      O        0.69706    0.77516    0.28933    1.000
    O55      O        0.69712    0.92201    0.28932    1.000
    O56      O        0.55646    0.85149    0.32984    1.000
    Cu14     Cu       0.61938    0.80971    0.30502    1.000
    C183     C        0.24063    0.21417    0.69369    1.000
    C184     C        0.18243    0.23517    0.71066    1.000
    C185     C        0.19693    0.26507    0.74437    1.000
    H71      H        0.24673    0.27607    0.75587    1.000
    C186     C        0.24073    0.02627    0.69369    1.000
    C187     C        0.18233    0.94697    0.71061    1.000
    C188     C        0.11003    0.88967    0.69356    1.000
    H72      H        0.09983    0.89977    0.67037    1.000
    C189     C        0.19693    0.93187    0.74442    1.000
    H73      H        0.24653    0.97087    0.75587    1.000
    C190     C        0.13983    0.86047    0.76166    1.000
    C191     C        0.15363    0.84647    0.79870    1.000
    C192     C        0.23013    0.85987    0.80967    1.000
    C193     C        0.14073    0.76937    0.80917    1.000
    C194     C        0.18223    0.91067    0.82227    1.000
    H74      H        0.19523    0.96447    0.81467    1.000
    C195     C        0.08873    0.81707    0.82207    1.000
    H75      H        0.03483    0.80397    0.81457    1.000
    N29      N        0.12293    0.69847    0.78587    1.000
    N30      N        0.30233    0.87887    0.78587    1.000
    O57      O        0.22300    0.03822    0.66321    1.000
    O58      O        0.36372    0.10850    0.62267    1.000
    O59      O        0.36378    0.25535    0.62266    1.000
    O60      O        0.22312    0.18483    0.66318    1.000
    Cu15     Cu       0.28604    0.14305    0.63835    1.000
    C196     C        0.45250    0.35980    0.02702    1.000
    C197     C        0.43150    0.28060    0.04399    1.000
    C198     C        0.40160    0.26520    0.07770    1.000
    H76      H        0.39060    0.30400    0.08920    1.000
    C199     C        0.64040    0.54780    0.02702    1.000
    C200     C        0.71970    0.56870    0.04394    1.000
    C201     C        0.77700    0.55370    0.02689    1.000
    H77      H        0.76690    0.53340    0.00370    1.000
    C202     C        0.73480    0.59840    0.07775    1.000
    H78      H        0.69580    0.60900    0.08920    1.000
    C203     C        0.80620    0.61270    0.09499    1.000
    C204     C        0.82020    0.64050    0.13203    1.000
    C205     C        0.80680    0.70360    0.14300    1.000
    C206     C        0.89730    0.70470    0.14250    1.000
    C207     C        0.75600    0.60490    0.15560    1.000
    H79      H        0.70220    0.56410    0.14800    1.000
    C208     C        0.84960    0.60500    0.15540    1.000
    H80      H        0.86270    0.56420    0.14790    1.000
    N31      N        0.96820    0.75780    0.11920    1.000
    N32      N        0.78780    0.75680    0.11920    1.000
    O61      O        0.62845    0.51812    0.99654    1.000
    O62      O        0.55817    0.58856    0.95600    1.000
    O63      O        0.41132    0.44177    0.95599    1.000
    O64      O        0.48184    0.37163    0.99651    1.000
    Cu16     Cu       0.52362    0.47633    0.97168    1.000
    C209     C        0.11917    0.69313    0.36035    1.000
    C210     C        0.09817    0.61393    0.37732    1.000
    C211     C        0.06827    0.59853    0.41103    1.000
    H81      H        0.05727    0.63733    0.42253    1.000
    C212     C        0.30707    0.88113    0.36035    1.000
    C213     C        0.38637    0.90203    0.37727    1.000
    C214     C        0.44367    0.88703    0.36022    1.000
    H82      H        0.43357    0.86673    0.33703    1.000
    C215     C        0.40147    0.93173    0.41108    1.000
    H83      H        0.36247    0.94233    0.42253    1.000
    C216     C        0.47287    0.94603    0.42832    1.000
    C217     C        0.48687    0.97383    0.46536    1.000
    C218     C        0.47347    0.03693    0.47633    1.000
    C219     C        0.56397    0.03803    0.47583    1.000
    C220     C        0.42267    0.93823    0.48893    1.000
    H84      H        0.36887    0.89743    0.48133    1.000
    C221     C        0.51627    0.93833    0.48873    1.000
    H85      H        0.52937    0.89753    0.48123    1.000
    N33      N        0.63487    0.09113    0.45253    1.000
    N34      N        0.45447    0.09013    0.45253    1.000
    O65      O        0.29512    0.85145    0.32987    1.000
    O66      O        0.22484    0.92189    0.28933    1.000
    O67      O        0.07799    0.77510    0.28932    1.000
    O68      O        0.14851    0.70496    0.32984    1.000
    Cu17     Cu       0.19029    0.80966    0.30502    1.000
    C222     C        0.78583    0.02647    0.69369    1.000
    C223     C        0.76483    0.94727    0.71066    1.000
    C224     C        0.73493    0.93187    0.74437    1.000
    H86      H        0.72393    0.97067    0.75587    1.000
    C225     C        0.97373    0.21447    0.69369    1.000
    C226     C        0.05303    0.23537    0.71061    1.000
    C227     C        0.11033    0.22037    0.69356    1.000
    H87      H        0.10023    0.20007    0.67037    1.000
    C228     C        0.06813    0.26507    0.74442    1.000
    H88      H        0.02913    0.27567    0.75587    1.000
    C229     C        0.13953    0.27937    0.76166    1.000
    C230     C        0.15353    0.30717    0.79870    1.000
    C231     C        0.14013    0.37027    0.80967    1.000
    C232     C        0.23063    0.37137    0.80917    1.000
    C233     C        0.08933    0.27157    0.82227    1.000
    H89      H        0.03553    0.23077    0.81467    1.000
    C234     C        0.18293    0.27167    0.82207    1.000
    H90      H        0.19603    0.23087    0.81457    1.000
    N35      N        0.30153    0.42447    0.78587    1.000
    N36      N        0.12113    0.42347    0.78587    1.000
    O69      O        0.96178    0.18479    0.66321    1.000
    O70      O        0.89150    0.25523    0.62267    1.000
    O71      O        0.74465    0.10844    0.62266    1.000
    O72      O        0.81517    0.03830    0.66318    1.000
    Cu18     Cu       0.85695    0.14300    0.63835    1.000
