# CIF file generated by openbabel 3.1.0, see https://openbabel.org
data_I
_chemical_name_common 'image0'
_cell_length_a 16.808
_cell_length_b 12.964
_cell_length_c 14.513
_cell_angle_alpha 90
_cell_angle_beta 108.46
_cell_angle_gamma 90
_space_group_name_H-M_alt 'P 1'
_space_group_name_Hall 'P 1'
loop_
    _symmetry_equiv_pos_as_xyz
    x,y,z
loop_
    _atom_site_label
    _atom_site_type_symbol
    _atom_site_fract_x
    _atom_site_fract_y
    _atom_site_fract_z
    _atom_site_occupancy
    Zn1      Zn       0.31802    0.48702    0.81944    1.000
    O1       O        0.23154    0.58640    0.75540    1.000
    O2       O        0.35698    0.38470    0.74640    1.000
    O3       O        0.27256    0.41494    0.91379    1.000
    O4       O        0.42369    0.55880    0.88370    1.000
    C1       C        0.15630    0.59880    0.75010    1.000
    Zn2      Zn       0.15464    0.44689    0.90055    1.000
    C2       C        0.32246    0.36600    0.99450    1.000
    O5       O        0.11563    0.54270    0.78860    1.000
    C3       C        0.11270    0.69090    0.69280    1.000
    O6       O        0.08846    0.32230    0.85940    1.000
    O7       O        0.12231    0.51140    0.00380    1.000
    C4       C        0.40780    0.38970    0.03290    1.000
    C5       C        0.28890    0.29070    0.04180    1.000
    C6       C        0.15560    0.75460    0.64800    1.000
    C7       C        0.03060    0.71360    0.68770    1.000
    C8       C        0.45840    0.34210    0.11740    1.000
    H1       H        0.43160    0.43910    0.00110    1.000
    C9       C        0.33990    0.24190    0.12520    1.000
    H2       H        0.23120    0.27310    0.01670    1.000
    C10      C        0.11570    0.84270    0.59870    1.000
    H3       H        0.21140    0.73860    0.65070    1.000
    C11      C        0.99000    0.80250    0.64060    1.000
    H4       H        0.00130    0.66780    0.71670    1.000
    C12      C        0.54840    0.37560    0.16370    1.000
    C13      C        0.42440    0.26830    0.16360    1.000
    C14      C        0.30480    0.16190    0.17730    1.000
    C15      C        0.16000    0.90670    0.54290    1.000
    C16      C        0.03430    0.86720    0.59630    1.000
    O8       O        0.58990    0.34180    0.24340    1.000
    H5       H        0.45860    0.23610    0.22130    1.000
    O9       O        0.22830    0.14480    0.15010    1.000
    O10      O        0.22660    0.87880    0.53400    1.000
    H6       H        0.00850    0.92840    0.56450    1.000
    Zn3      Zn       0.68198    0.98702    0.68056    1.000
    O11      O        0.76846    0.08640    0.74460    1.000
    O12      O        0.64302    0.88470    0.75360    1.000
    O13      O        0.72744    0.91494    0.58621    1.000
    O14      O        0.57631    0.05880    0.61630    1.000
    C17      C        0.84370    0.09880    0.74990    1.000
    Zn4      Zn       0.84536    0.94689    0.59945    1.000
    C18      C        0.67754    0.86600    0.50550    1.000
    O15      O        0.88437    0.04270    0.71140    1.000
    C19      C        0.88730    0.19090    0.80720    1.000
    O16      O        0.91154    0.82230    0.64060    1.000
    O17      O        0.87769    0.01140    0.49620    1.000
    C20      C        0.59220    0.88970    0.46710    1.000
    C21      C        0.71110    0.79070    0.45820    1.000
    C22      C        0.84440    0.25460    0.85200    1.000
    C23      C        0.96940    0.21360    0.81230    1.000
    C24      C        0.54160    0.84210    0.38260    1.000
    H7       H        0.56840    0.93910    0.49890    1.000
    C25      C        0.66010    0.74190    0.37480    1.000
    H8       H        0.76880    0.77310    0.48330    1.000
    C26      C        0.88430    0.34270    0.90130    1.000
    H9       H        0.78860    0.23860    0.84930    1.000
    C27      C        0.01000    0.30250    0.85940    1.000
    H10      H        0.99870    0.16780    0.78330    1.000
    C28      C        0.45160    0.87560    0.33630    1.000
    C29      C        0.57560    0.76830    0.33640    1.000
    C30      C        0.69520    0.66190    0.32270    1.000
    C31      C        0.84000    0.40670    0.95710    1.000
    C32      C        0.96570    0.36720    0.90370    1.000
    O18      O        0.41010    0.84180    0.25660    1.000
    H11      H        0.54140    0.73610    0.27870    1.000
    O19      O        0.77170    0.64480    0.34990    1.000
    O20      O        0.77340    0.37880    0.96600    1.000
    H12      H        0.99150    0.42840    0.93550    1.000
    Zn5      Zn       0.68198    0.51298    0.18056    1.000
    O21      O        0.76846    0.41360    0.24460    1.000
    O22      O        0.64302    0.61530    0.25360    1.000
    O23      O        0.72744    0.58506    0.08621    1.000
    O24      O        0.57631    0.44120    0.11630    1.000
    C33      C        0.84370    0.40120    0.24990    1.000
    Zn6      Zn       0.84536    0.55311    0.09945    1.000
    C34      C        0.67754    0.63400    0.00550    1.000
    O25      O        0.88437    0.45730    0.21140    1.000
    C35      C        0.88730    0.30910    0.30720    1.000
    O26      O        0.91154    0.67770    0.14060    1.000
    O27      O        0.87769    0.48860    0.99620    1.000
    C36      C        0.59220    0.61030    0.96710    1.000
    C37      C        0.71110    0.70930    0.95820    1.000
    C38      C        0.84440    0.24540    0.35200    1.000
    C39      C        0.96940    0.28640    0.31230    1.000
    C40      C        0.54160    0.65790    0.88260    1.000
    H13      H        0.56840    0.56090    0.99890    1.000
    C41      C        0.66010    0.75810    0.87480    1.000
    H14      H        0.76880    0.72690    0.98330    1.000
    C42      C        0.88430    0.15730    0.40130    1.000
    H15      H        0.78860    0.26140    0.34930    1.000
    C43      C        0.01000    0.19750    0.35940    1.000
    H16      H        0.99870    0.33220    0.28330    1.000
    C44      C        0.45160    0.62440    0.83630    1.000
    C45      C        0.57560    0.73170    0.83640    1.000
    C46      C        0.69520    0.83810    0.82270    1.000
    C47      C        0.84000    0.09330    0.45710    1.000
    C48      C        0.96570    0.13280    0.40370    1.000
    O28      O        0.41010    0.65820    0.75660    1.000
    H17      H        0.54140    0.76390    0.77870    1.000
    O29      O        0.77170    0.85520    0.84990    1.000
    O30      O        0.77340    0.12120    0.46600    1.000
    H18      H        0.99150    0.07160    0.43550    1.000
    Zn7      Zn       0.31802    0.01298    0.31944    1.000
    O31      O        0.23154    0.91360    0.25540    1.000
    O32      O        0.35698    0.11530    0.24640    1.000
    O33      O        0.27256    0.08506    0.41379    1.000
    O34      O        0.42369    0.94120    0.38370    1.000
    C49      C        0.15630    0.90120    0.25010    1.000
    Zn8      Zn       0.15464    0.05311    0.40055    1.000
    C50      C        0.32246    0.13400    0.49450    1.000
    O35      O        0.11563    0.95730    0.28860    1.000
    C51      C        0.11270    0.80910    0.19280    1.000
    O36      O        0.08846    0.17770    0.35940    1.000
    O37      O        0.12231    0.98860    0.50380    1.000
    C52      C        0.40780    0.11030    0.53290    1.000
    C53      C        0.28890    0.20930    0.54180    1.000
    C54      C        0.15560    0.74540    0.14800    1.000
    C55      C        0.03060    0.78640    0.18770    1.000
    C56      C        0.45840    0.15790    0.61740    1.000
    H19      H        0.43160    0.06090    0.50110    1.000
    C57      C        0.33990    0.25810    0.62520    1.000
    H20      H        0.23120    0.22690    0.51670    1.000
    C58      C        0.11570    0.65730    0.09870    1.000
    H21      H        0.21140    0.76140    0.15070    1.000
    C59      C        0.99000    0.69750    0.14060    1.000
    H22      H        0.00130    0.83220    0.21670    1.000
    C60      C        0.54840    0.12440    0.66370    1.000
    C61      C        0.42440    0.23170    0.66360    1.000
    C62      C        0.30480    0.33810    0.67730    1.000
    C63      C        0.16000    0.59330    0.04290    1.000
    C64      C        0.03430    0.63280    0.09630    1.000
    O38      O        0.58990    0.15820    0.74340    1.000
    H23      H        0.45860    0.26390    0.72130    1.000
    O39      O        0.22830    0.35520    0.65010    1.000
    O40      O        0.22660    0.62120    0.03400    1.000
    H24      H        0.00850    0.57160    0.06450    1.000
