# CIF file generated by openbabel 3.1.0, see https://openbabel.org
data_I
_chemical_name_common 'image0'
_cell_length_a 9.2187
_cell_length_b 14.8652
_cell_length_c 14.5811
_cell_angle_alpha 90
_cell_angle_beta 90
_cell_angle_gamma 90
_space_group_name_H-M_alt 'P 1'
_space_group_name_Hall 'P 1'
loop_
    _symmetry_equiv_pos_as_xyz
    x,y,z
loop_
    _atom_site_label
    _atom_site_type_symbol
    _atom_site_fract_x
    _atom_site_fract_y
    _atom_site_fract_z
    _atom_site_occupancy
    P1       P        0.15480    0.13560    0.10410    1.000
    Al1      Al       0.14800    0.34790    0.11450    1.000
    O1       O        0.97250    0.35970    0.16280    1.000
    O2       O        0.72800    0.92630    0.16020    1.000
    O3       O        0.26740    0.06950    0.13640    1.000
    O4       O        0.12690    0.11160    0.00260    1.000
    O5       O        0.01340    0.11910    0.15260    1.000
    O6       O        0.21020    0.23280    0.11870    1.000
    P2       P        0.84520    0.86440    0.60410    1.000
    Al2      Al       0.85200    0.65210    0.61450    1.000
    O7       O        0.02750    0.64030    0.66280    1.000
    O8       O        0.27200    0.07370    0.66020    1.000
    O9       O        0.73260    0.93050    0.63640    1.000
    O10      O        0.87310    0.88840    0.50260    1.000
    O11      O        0.98660    0.88090    0.65260    1.000
    O12      O        0.78980    0.76720    0.61870    1.000
    P3       P        0.84520    0.63560    0.39590    1.000
    Al3      Al       0.85200    0.84790    0.38550    1.000
    O13      O        0.02750    0.85970    0.33720    1.000
    O14      O        0.27200    0.42630    0.33980    1.000
    O15      O        0.73260    0.56950    0.36360    1.000
    O16      O        0.87310    0.61160    0.49740    1.000
    O17      O        0.98660    0.61910    0.34740    1.000
    O18      O        0.78980    0.73280    0.38130    1.000
    P4       P        0.15480    0.36440    0.89590    1.000
    Al4      Al       0.14800    0.15210    0.88550    1.000
    O19      O        0.97250    0.14030    0.83720    1.000
    O20      O        0.72800    0.57370    0.83980    1.000
    O21      O        0.26740    0.43050    0.86360    1.000
    O22      O        0.12690    0.38840    0.99740    1.000
    O23      O        0.01340    0.38090    0.84740    1.000
    O24      O        0.21020    0.26720    0.88130    1.000
    P5       P        0.84520    0.86440    0.89590    1.000
    Al5      Al       0.85200    0.65210    0.88550    1.000
    O25      O        0.02750    0.64030    0.83720    1.000
    O26      O        0.27200    0.07370    0.83980    1.000
    O27      O        0.73260    0.93050    0.86360    1.000
    O28      O        0.87310    0.88840    0.99740    1.000
    O29      O        0.98660    0.88090    0.84740    1.000
    O30      O        0.78980    0.76720    0.88130    1.000
    P6       P        0.15480    0.13560    0.39590    1.000
    Al6      Al       0.14800    0.34790    0.38550    1.000
    O31      O        0.97250    0.35970    0.33720    1.000
    O32      O        0.72800    0.92630    0.33980    1.000
    O33      O        0.26740    0.06950    0.36360    1.000
    O34      O        0.12690    0.11160    0.49740    1.000
    O35      O        0.01340    0.11910    0.34740    1.000
    O36      O        0.21020    0.23280    0.38130    1.000
    P7       P        0.15480    0.36440    0.60410    1.000
    Al7      Al       0.14800    0.15210    0.61450    1.000
    O37      O        0.97250    0.14030    0.66280    1.000
    O38      O        0.72800    0.57370    0.66020    1.000
    O39      O        0.26740    0.43050    0.63640    1.000
    O40      O        0.12690    0.38840    0.50260    1.000
    O41      O        0.01340    0.38090    0.65260    1.000
    O42      O        0.21020    0.26720    0.61870    1.000
    P8       P        0.84520    0.63560    0.10410    1.000
    Al8      Al       0.85200    0.84790    0.11450    1.000
    O43      O        0.02750    0.85970    0.16280    1.000
    O44      O        0.27200    0.42630    0.16020    1.000
    O45      O        0.73260    0.56950    0.13640    1.000
    O46      O        0.87310    0.61160    0.00260    1.000
    O47      O        0.98660    0.61910    0.15260    1.000
    O48      O        0.78980    0.73280    0.11870    1.000
    P9       P        0.88900    0.33470    0.25000    1.000
    P10      P        0.68510    0.96380    0.25000    1.000
    Al9      Al       0.89890    0.13530    0.25000    1.000
    Mg1      Mg       0.67090    0.51900    0.25000    1.000
    O49      O        0.81440    0.24300    0.25000    1.000
    O50      O        0.75720    0.39460    0.25000    1.000
    O51      O        0.75630    0.05370    0.25000    1.000
    O52      O        0.53150    0.99390    0.25000    1.000
    Al10     Al       0.32910    0.01900    0.25000    1.000
    P11      P        0.11100    0.66530    0.75000    1.000
    P12      P        0.31490    0.03620    0.75000    1.000
    Al11     Al       0.10110    0.86470    0.75000    1.000
    Mg2      Mg       0.32910    0.48100    0.75000    1.000
    O53      O        0.18560    0.75700    0.75000    1.000
    O54      O        0.24280    0.60540    0.75000    1.000
    O55      O        0.24370    0.94630    0.75000    1.000
    O56      O        0.46850    0.00610    0.75000    1.000
    Al12     Al       0.67090    0.98100    0.75000    1.000
    P13      P        0.11100    0.83470    0.25000    1.000
    P14      P        0.31490    0.46380    0.25000    1.000
    Al13     Al       0.10110    0.63530    0.25000    1.000
    O57      O        0.18560    0.74300    0.25000    1.000
    O58      O        0.24280    0.89460    0.25000    1.000
    O59      O        0.24370    0.55370    0.25000    1.000
    O60      O        0.46850    0.49390    0.25000    1.000
    P15      P        0.88900    0.16530    0.75000    1.000
    P16      P        0.68510    0.53620    0.75000    1.000
    Al14     Al       0.89890    0.36470    0.75000    1.000
    O61      O        0.81440    0.25700    0.75000    1.000
    O62      O        0.75720    0.10540    0.75000    1.000
    O63      O        0.75630    0.44630    0.75000    1.000
    O64      O        0.53150    0.50610    0.75000    1.000
