# CIF file generated by openbabel 3.1.0, see https://openbabel.org
data_I
_chemical_name_common 'image0'
_cell_length_a 54.076
_cell_length_b 15.3088
_cell_length_c 16.0309
_cell_angle_alpha 90
_cell_angle_beta 90
_cell_angle_gamma 90
_space_group_name_H-M_alt 'P 1'
_space_group_name_Hall 'P 1'
loop_
    _symmetry_equiv_pos_as_xyz
    x,y,z
loop_
    _atom_site_label
    _atom_site_type_symbol
    _atom_site_fract_x
    _atom_site_fract_y
    _atom_site_fract_z
    _atom_site_occupancy
    Zn1      Zn       0.25296    0.93899    0.54909    1.000
    Zn2      Zn       0.20057    0.94878    0.65008    1.000
    Zn3      Zn       0.09555    0.67407    0.29350    1.000
    Zn4      Zn       0.07028    0.84885    0.33811    1.000
    O1       O        0.10090    0.77870    0.36190    1.000
    O2       O        0.16430    0.91850    0.16180    1.000
    O3       O        0.18410    0.00660    0.24640    1.000
    O4       O        0.15900    0.85120    0.59700    1.000
    O5       O        0.18693    0.93330    0.53900    1.000
    O6       O        0.22972    0.01780    0.61540    1.000
    O7       O        0.24330    0.04390    0.92970    1.000
    O8       O        0.27230    0.14500    0.93860    1.000
    O9       O        0.07210    0.85520    0.21730    1.000
    O10      O        0.07530    0.03380    0.86520    1.000
    O11      O        0.13490    0.65060    0.24600    1.000
    O12      O        0.08290    0.71810    0.18270    1.000
    O13      O        0.06510    0.63390    0.35030    1.000
    O14      O        0.04490    0.76310    0.36430    1.000
    O15      O        0.10720    0.55120    0.27220    1.000
    O16      O        0.21400    0.44620    0.03690    1.000
    O17      O        0.21648    0.56090    0.11830    1.000
    O18      O        0.28490    0.34210    0.70010    1.000
    O19      O        0.26200    0.32280    0.58450    1.000
    O20      O        0.14800    0.26780    0.20470    1.000
    O21      O        0.07180    0.07740    0.99050    1.000
    C1       C        0.12340    0.82330    0.36810    1.000
    C2       C        0.13440    0.85710    0.29860    1.000
    H1       H        0.12730    0.84810    0.24650    1.000
    C3       C        0.13310    0.83200    0.44520    1.000
    H2       H        0.12510    0.80880    0.49160    1.000
    C4       C        0.15620    0.90530    0.30530    1.000
    C5       C        0.15560    0.87730    0.45350    1.000
    C6       C        0.16620    0.91440    0.38620    1.000
    H3       H        0.18060    0.94700    0.39330    1.000
    C7       C        0.16820    0.94350    0.23020    1.000
    C8       C        0.16830    0.88620    0.53560    1.000
    C9       C        0.24010    0.07810    0.67090    1.000
    C10      C        0.24860    0.15550    0.63600    1.000
    H4       H        0.24650    0.16750    0.57960    1.000
    C11      C        0.24230    0.05990    0.75160    1.000
    H5       H        0.23520    0.00880    0.77220    1.000
    C12      C        0.26000    0.21280    0.68740    1.000
    C13      C        0.25470    0.11480    0.80590    1.000
    C14      C        0.26520    0.19420    0.77230    1.000
    H6       H        0.27480    0.23140    0.80480    1.000
    C15      C        0.25710    0.10110    0.89570    1.000
    C16      C        0.20600    0.48970    0.09370    1.000
    C17      C        0.18280    0.46780    0.13820    1.000
    C18      C        0.04610    0.68310    0.36230    1.000
    C19      C        0.27010    0.30130    0.65300    1.000
    C20      C        0.17570    0.37750    0.14480    1.000
    H7       H        0.18540    0.33510    0.11930    1.000
    C21      C        0.07830    0.79560    0.16350    1.000
    C22      C        0.16750    0.52870    0.17100    1.000
    H8       H        0.17170    0.58740    0.16600    1.000
    C23      C        0.15490    0.35250    0.18790    1.000
    C24      C        0.12710    0.57340    0.24430    1.000
    C25      C        0.14580    0.50610    0.21200    1.000
    C26      C        0.13830    0.41870    0.21800    1.000
    H9       H        0.12300    0.40400    0.24080    1.000
    C27      C        0.08270    0.82000    0.07620    1.000
    C28      C        0.07600    0.90420    0.04950    1.000
    H10      H        0.06850    0.94250    0.08670    1.000
    C29      C        0.09080    0.76150    0.01850    1.000
    H11      H        0.09600    0.70650    0.03590    1.000
    C30      C        0.07500    0.02320    0.94260    1.000
    C31      C        0.09170    0.78210    0.93500    1.000
    C32      C        0.08050    0.92970    0.97100    1.000
    O22      O        0.10170    0.72630    0.87200    1.000
    C33      C        0.08980    0.87040    0.91400    1.000
    H12      H        0.09480    0.88950    0.86160    1.000
    C34      C        0.01950    0.54600    0.37400    1.000
    H13      H        0.03370    0.51800    0.35610    1.000
    C35      C        0.02170    0.63900    0.38800    1.000
    C36      C        0.02270    0.54500    0.40400    1.000
    H14      H        0.03770    0.51640    0.41310    1.000
    C37      C        0.02040    0.63300    0.37100    1.000
    Zn5      Zn       0.75296    0.43899    0.54909    1.000
    Zn6      Zn       0.70057    0.44878    0.65008    1.000
    Zn7      Zn       0.59555    0.17407    0.29350    1.000
    Zn8      Zn       0.57028    0.34885    0.33811    1.000
    O23      O        0.60090    0.27870    0.36190    1.000
    O24      O        0.66430    0.41850    0.16180    1.000
    O25      O        0.68410    0.50660    0.24640    1.000
    O26      O        0.65900    0.35120    0.59700    1.000
    O27      O        0.68693    0.43330    0.53900    1.000
    O28      O        0.72972    0.51780    0.61540    1.000
    O29      O        0.74330    0.54390    0.92970    1.000
    O30      O        0.77230    0.64500    0.93860    1.000
    O31      O        0.57210    0.35520    0.21730    1.000
    O32      O        0.57530    0.53380    0.86520    1.000
    O33      O        0.63490    0.15060    0.24600    1.000
    O34      O        0.58290    0.21810    0.18270    1.000
    O35      O        0.56510    0.13390    0.35030    1.000
    O36      O        0.54490    0.26310    0.36430    1.000
    O37      O        0.60720    0.05120    0.27220    1.000
    O38      O        0.71400    0.94620    0.03690    1.000
    O39      O        0.71648    0.06090    0.11830    1.000
    O40      O        0.78490    0.84210    0.70010    1.000
    O41      O        0.76200    0.82280    0.58450    1.000
    O42      O        0.64800    0.76780    0.20470    1.000
    O43      O        0.57180    0.57740    0.99050    1.000
    C38      C        0.62340    0.32330    0.36810    1.000
    C39      C        0.63440    0.35710    0.29860    1.000
    H15      H        0.62730    0.34810    0.24650    1.000
    C40      C        0.63310    0.33200    0.44520    1.000
    H16      H        0.62510    0.30880    0.49160    1.000
    C41      C        0.65620    0.40530    0.30530    1.000
    C42      C        0.65560    0.37730    0.45350    1.000
    C43      C        0.66620    0.41440    0.38620    1.000
    H17      H        0.68060    0.44700    0.39330    1.000
    C44      C        0.66820    0.44350    0.23020    1.000
    C45      C        0.66830    0.38620    0.53560    1.000
    C46      C        0.74010    0.57810    0.67090    1.000
    C47      C        0.74860    0.65550    0.63600    1.000
    H18      H        0.74650    0.66750    0.57960    1.000
    C48      C        0.74230    0.55990    0.75160    1.000
    H19      H        0.73520    0.50880    0.77220    1.000
    C49      C        0.76000    0.71280    0.68740    1.000
    C50      C        0.75470    0.61480    0.80590    1.000
    C51      C        0.76520    0.69420    0.77230    1.000
    H20      H        0.77480    0.73140    0.80480    1.000
    C52      C        0.75710    0.60110    0.89570    1.000
    C53      C        0.70600    0.98970    0.09370    1.000
    C54      C        0.68280    0.96780    0.13820    1.000
    C55      C        0.54610    0.18310    0.36230    1.000
    C56      C        0.77010    0.80130    0.65300    1.000
    C57      C        0.67570    0.87750    0.14480    1.000
    H21      H        0.68540    0.83510    0.11930    1.000
    C58      C        0.57830    0.29560    0.16350    1.000
    C59      C        0.66750    0.02870    0.17100    1.000
    H22      H        0.67170    0.08740    0.16600    1.000
    C60      C        0.65490    0.85250    0.18790    1.000
    C61      C        0.62710    0.07340    0.24430    1.000
    C62      C        0.64580    0.00610    0.21200    1.000
    C63      C        0.63830    0.91870    0.21800    1.000
    H23      H        0.62300    0.90400    0.24080    1.000
    C64      C        0.58270    0.32000    0.07620    1.000
    C65      C        0.57600    0.40420    0.04950    1.000
    H24      H        0.56850    0.44250    0.08670    1.000
    C66      C        0.59080    0.26150    0.01850    1.000
    H25      H        0.59600    0.20650    0.03590    1.000
    C67      C        0.57500    0.52320    0.94260    1.000
    C68      C        0.59170    0.28210    0.93500    1.000
    C69      C        0.58050    0.42970    0.97100    1.000
    O44      O        0.60170    0.22630    0.87200    1.000
    C70      C        0.58980    0.37040    0.91400    1.000
    H26      H        0.59480    0.38950    0.86160    1.000
    C71      C        0.51950    0.04600    0.37400    1.000
    H27      H        0.53370    0.01800    0.35610    1.000
    C72      C        0.52170    0.13900    0.38800    1.000
    C73      C        0.52270    0.04500    0.40400    1.000
    H28      H        0.53770    0.01640    0.41310    1.000
    C74      C        0.52040    0.13300    0.37100    1.000
    Zn9      Zn       0.74704    0.06101    0.04909    1.000
    Zn10     Zn       0.79943    0.05122    0.15008    1.000
    Zn11     Zn       0.90445    0.32593    0.79350    1.000
    Zn12     Zn       0.92972    0.15115    0.83811    1.000
    O45      O        0.89910    0.22130    0.86190    1.000
    O46      O        0.83570    0.08150    0.66180    1.000
    O47      O        0.81590    0.99340    0.74640    1.000
    O48      O        0.84100    0.14880    0.09700    1.000
    O49      O        0.81307    0.06670    0.03900    1.000
    O50      O        0.77028    0.98220    0.11540    1.000
    O51      O        0.75670    0.95610    0.42970    1.000
    O52      O        0.72770    0.85500    0.43860    1.000
    O53      O        0.92790    0.14480    0.71730    1.000
    O54      O        0.92470    0.96620    0.36520    1.000
    O55      O        0.86510    0.34940    0.74600    1.000
    O56      O        0.91710    0.28190    0.68270    1.000
    O57      O        0.93490    0.36610    0.85030    1.000
    O58      O        0.95510    0.23690    0.86430    1.000
    O59      O        0.89280    0.44880    0.77220    1.000
    O60      O        0.78600    0.55380    0.53690    1.000
    O61      O        0.78352    0.43910    0.61830    1.000
    O62      O        0.71510    0.65790    0.20010    1.000
    O63      O        0.73800    0.67720    0.08450    1.000
    O64      O        0.85200    0.73220    0.70470    1.000
    O65      O        0.92820    0.92260    0.49050    1.000
    C75      C        0.87660    0.17670    0.86810    1.000
    C76      C        0.86560    0.14290    0.79860    1.000
    H29      H        0.87270    0.15190    0.74650    1.000
    C77      C        0.86690    0.16800    0.94520    1.000
    H30      H        0.87490    0.19120    0.99160    1.000
    C78      C        0.84380    0.09470    0.80530    1.000
    C79      C        0.84440    0.12270    0.95350    1.000
    C80      C        0.83380    0.08560    0.88620    1.000
    H31      H        0.81940    0.05300    0.89330    1.000
    C81      C        0.83180    0.05650    0.73020    1.000
    C82      C        0.83170    0.11380    0.03560    1.000
    C83      C        0.75990    0.92190    0.17090    1.000
    C84      C        0.75140    0.84450    0.13600    1.000
    H32      H        0.75350    0.83250    0.07960    1.000
    C85      C        0.75770    0.94010    0.25160    1.000
    H33      H        0.76480    0.99120    0.27220    1.000
    C86      C        0.74000    0.78720    0.18740    1.000
    C87      C        0.74530    0.88520    0.30590    1.000
    C88      C        0.73480    0.80580    0.27230    1.000
    H34      H        0.72520    0.76860    0.30480    1.000
    C89      C        0.74290    0.89890    0.39570    1.000
    C90      C        0.79400    0.51030    0.59370    1.000
    C91      C        0.81720    0.53220    0.63820    1.000
    C92      C        0.95390    0.31690    0.86230    1.000
    C93      C        0.72990    0.69870    0.15300    1.000
    C94      C        0.82430    0.62250    0.64480    1.000
    H35      H        0.81460    0.66490    0.61930    1.000
    C95      C        0.92170    0.20440    0.66350    1.000
    C96      C        0.83250    0.47130    0.67100    1.000
    H36      H        0.82830    0.41260    0.66600    1.000
    C97      C        0.84510    0.64750    0.68790    1.000
    C98      C        0.87290    0.42660    0.74430    1.000
    C99      C        0.85420    0.49390    0.71200    1.000
    C100     C        0.86170    0.58130    0.71800    1.000
    H37      H        0.87700    0.59600    0.74080    1.000
    C101     C        0.91730    0.18000    0.57620    1.000
    C102     C        0.92400    0.09580    0.54950    1.000
    H38      H        0.93150    0.05750    0.58670    1.000
    C103     C        0.90920    0.23850    0.51850    1.000
    H39      H        0.90400    0.29350    0.53590    1.000
    C104     C        0.92500    0.97680    0.44260    1.000
    C105     C        0.90830    0.21790    0.43500    1.000
    C106     C        0.91950    0.07030    0.47100    1.000
    O66      O        0.89830    0.27370    0.37200    1.000
    C107     C        0.91020    0.12960    0.41400    1.000
    H40      H        0.90520    0.11050    0.36160    1.000
    C108     C        0.98050    0.45400    0.87400    1.000
    H41      H        0.96630    0.48200    0.85610    1.000
    C109     C        0.97830    0.36100    0.88800    1.000
    C110     C        0.97730    0.45500    0.90400    1.000
    H42      H        0.96230    0.48360    0.91310    1.000
    C111     C        0.97960    0.36700    0.87100    1.000
    Zn13     Zn       0.24704    0.56101    0.04909    1.000
    Zn14     Zn       0.29943    0.55122    0.15008    1.000
    Zn15     Zn       0.40445    0.82593    0.79350    1.000
    Zn16     Zn       0.42972    0.65115    0.83811    1.000
    O67      O        0.39910    0.72130    0.86190    1.000
    O68      O        0.33570    0.58150    0.66180    1.000
    O69      O        0.31590    0.49340    0.74640    1.000
    O70      O        0.34100    0.64880    0.09700    1.000
    O71      O        0.31307    0.56670    0.03900    1.000
    O72      O        0.27028    0.48220    0.11540    1.000
    O73      O        0.25670    0.45610    0.42970    1.000
    O74      O        0.22770    0.35500    0.43860    1.000
    O75      O        0.42790    0.64480    0.71730    1.000
    O76      O        0.42470    0.46620    0.36520    1.000
    O77      O        0.36510    0.84940    0.74600    1.000
    O78      O        0.41710    0.78190    0.68270    1.000
    O79      O        0.43490    0.86610    0.85030    1.000
    O80      O        0.45510    0.73690    0.86430    1.000
    O81      O        0.39280    0.94880    0.77220    1.000
    O82      O        0.28600    0.05380    0.53690    1.000
    O83      O        0.28352    0.93910    0.61830    1.000
    O84      O        0.21510    0.15790    0.20010    1.000
    O85      O        0.23800    0.17720    0.08450    1.000
    O86      O        0.35200    0.23220    0.70470    1.000
    O87      O        0.42820    0.42260    0.49050    1.000
    C112     C        0.37660    0.67670    0.86810    1.000
    C113     C        0.36560    0.64290    0.79860    1.000
    H43      H        0.37270    0.65190    0.74650    1.000
    C114     C        0.36690    0.66800    0.94520    1.000
    H44      H        0.37490    0.69120    0.99160    1.000
    C115     C        0.34380    0.59470    0.80530    1.000
    C116     C        0.34440    0.62270    0.95350    1.000
    C117     C        0.33380    0.58560    0.88620    1.000
    H45      H        0.31940    0.55300    0.89330    1.000
    C118     C        0.33180    0.55650    0.73020    1.000
    C119     C        0.33170    0.61380    0.03560    1.000
    C120     C        0.25990    0.42190    0.17090    1.000
    C121     C        0.25140    0.34450    0.13600    1.000
    H46      H        0.25350    0.33250    0.07960    1.000
    C122     C        0.25770    0.44010    0.25160    1.000
    H47      H        0.26480    0.49120    0.27220    1.000
    C123     C        0.24000    0.28720    0.18740    1.000
    C124     C        0.24530    0.38520    0.30590    1.000
    C125     C        0.23480    0.30580    0.27230    1.000
    H48      H        0.22520    0.26860    0.30480    1.000
    C126     C        0.24290    0.39890    0.39570    1.000
    C127     C        0.29400    0.01030    0.59370    1.000
    C128     C        0.31720    0.03220    0.63820    1.000
    C129     C        0.45390    0.81690    0.86230    1.000
    C130     C        0.22990    0.19870    0.15300    1.000
    C131     C        0.32430    0.12250    0.64480    1.000
    H49      H        0.31460    0.16490    0.61930    1.000
    C132     C        0.42170    0.70440    0.66350    1.000
    C133     C        0.33250    0.97130    0.67100    1.000
    H50      H        0.32830    0.91260    0.66600    1.000
    C134     C        0.34510    0.14750    0.68790    1.000
    C135     C        0.37290    0.92660    0.74430    1.000
    C136     C        0.35420    0.99390    0.71200    1.000
    C137     C        0.36170    0.08130    0.71800    1.000
    H51      H        0.37700    0.09600    0.74080    1.000
    C138     C        0.41730    0.68000    0.57620    1.000
    C139     C        0.42400    0.59580    0.54950    1.000
    H52      H        0.43150    0.55750    0.58670    1.000
    C140     C        0.40920    0.73850    0.51850    1.000
    H53      H        0.40400    0.79350    0.53590    1.000
    C141     C        0.42500    0.47680    0.44260    1.000
    C142     C        0.40830    0.71790    0.43500    1.000
    C143     C        0.41950    0.57030    0.47100    1.000
    O88      O        0.39830    0.77370    0.37200    1.000
    C144     C        0.41020    0.62960    0.41400    1.000
    H54      H        0.40520    0.61050    0.36160    1.000
    C145     C        0.48050    0.95400    0.87400    1.000
    H55      H        0.46630    0.98200    0.85610    1.000
    C146     C        0.47830    0.86100    0.88800    1.000
    C147     C        0.47730    0.95500    0.90400    1.000
    H56      H        0.46230    0.98360    0.91310    1.000
    C148     C        0.47960    0.86700    0.87100    1.000
    Zn17     Zn       0.25296    0.06101    0.04909    1.000
    Zn18     Zn       0.20057    0.05122    0.15008    1.000
    Zn19     Zn       0.09555    0.32593    0.79350    1.000
    Zn20     Zn       0.07028    0.15115    0.83811    1.000
    O89      O        0.10090    0.22130    0.86190    1.000
    O90      O        0.16430    0.08150    0.66180    1.000
    O91      O        0.18410    0.99340    0.74640    1.000
    O92      O        0.15900    0.14880    0.09700    1.000
    O93      O        0.18693    0.06670    0.03900    1.000
    O94      O        0.22972    0.98220    0.11540    1.000
    O95      O        0.24330    0.95610    0.42970    1.000
    O96      O        0.27230    0.85500    0.43860    1.000
    O97      O        0.07210    0.14480    0.71730    1.000
    O98      O        0.07530    0.96620    0.36520    1.000
    O99      O        0.13490    0.34940    0.74600    1.000
    O100     O        0.08290    0.28190    0.68270    1.000
    O101     O        0.06510    0.36610    0.85030    1.000
    O102     O        0.04490    0.23690    0.86430    1.000
    O103     O        0.10720    0.44880    0.77220    1.000
    O104     O        0.21400    0.55380    0.53690    1.000
    O105     O        0.21648    0.43910    0.61830    1.000
    O106     O        0.28490    0.65790    0.20010    1.000
    O107     O        0.26200    0.67720    0.08450    1.000
    O108     O        0.14800    0.73220    0.70470    1.000
    O109     O        0.07180    0.92260    0.49050    1.000
    C149     C        0.12340    0.17670    0.86810    1.000
    C150     C        0.13440    0.14290    0.79860    1.000
    H57      H        0.12730    0.15190    0.74650    1.000
    C151     C        0.13310    0.16800    0.94520    1.000
    H58      H        0.12510    0.19120    0.99160    1.000
    C152     C        0.15620    0.09470    0.80530    1.000
    C153     C        0.15560    0.12270    0.95350    1.000
    C154     C        0.16620    0.08560    0.88620    1.000
    H59      H        0.18060    0.05300    0.89330    1.000
    C155     C        0.16820    0.05650    0.73020    1.000
    C156     C        0.16830    0.11380    0.03560    1.000
    C157     C        0.24010    0.92190    0.17090    1.000
    C158     C        0.24860    0.84450    0.13600    1.000
    H60      H        0.24650    0.83250    0.07960    1.000
    C159     C        0.24230    0.94010    0.25160    1.000
    H61      H        0.23520    0.99120    0.27220    1.000
    C160     C        0.26000    0.78720    0.18740    1.000
    C161     C        0.25470    0.88520    0.30590    1.000
    C162     C        0.26520    0.80580    0.27230    1.000
    H62      H        0.27480    0.76860    0.30480    1.000
    C163     C        0.25710    0.89890    0.39570    1.000
    C164     C        0.20600    0.51030    0.59370    1.000
    C165     C        0.18280    0.53220    0.63820    1.000
    C166     C        0.04610    0.31690    0.86230    1.000
    C167     C        0.27010    0.69870    0.15300    1.000
    C168     C        0.17570    0.62250    0.64480    1.000
    H63      H        0.18540    0.66490    0.61930    1.000
    C169     C        0.07830    0.20440    0.66350    1.000
    C170     C        0.16750    0.47130    0.67100    1.000
    H64      H        0.17170    0.41260    0.66600    1.000
    C171     C        0.15490    0.64750    0.68790    1.000
    C172     C        0.12710    0.42660    0.74430    1.000
    C173     C        0.14580    0.49390    0.71200    1.000
    C174     C        0.13830    0.58130    0.71800    1.000
    H65      H        0.12300    0.59600    0.74080    1.000
    C175     C        0.08270    0.18000    0.57620    1.000
    C176     C        0.07600    0.09580    0.54950    1.000
    H66      H        0.06850    0.05750    0.58670    1.000
    C177     C        0.09080    0.23850    0.51850    1.000
    H67      H        0.09600    0.29350    0.53590    1.000
    C178     C        0.07500    0.97680    0.44260    1.000
    C179     C        0.09170    0.21790    0.43500    1.000
    C180     C        0.08050    0.07030    0.47100    1.000
    O110     O        0.10170    0.27370    0.37200    1.000
    C181     C        0.08980    0.12960    0.41400    1.000
    H68      H        0.09480    0.11050    0.36160    1.000
    C182     C        0.01950    0.45400    0.87400    1.000
    H69      H        0.03370    0.48200    0.85610    1.000
    C183     C        0.02170    0.36100    0.88800    1.000
    C184     C        0.02270    0.45500    0.90400    1.000
    H70      H        0.03770    0.48360    0.91310    1.000
    C185     C        0.02040    0.36700    0.87100    1.000
    Zn21     Zn       0.75296    0.56101    0.04909    1.000
    Zn22     Zn       0.70057    0.55122    0.15008    1.000
    Zn23     Zn       0.59555    0.82593    0.79350    1.000
    Zn24     Zn       0.57028    0.65115    0.83811    1.000
    O111     O        0.60090    0.72130    0.86190    1.000
    O112     O        0.66430    0.58150    0.66180    1.000
    O113     O        0.68410    0.49340    0.74640    1.000
    O114     O        0.65900    0.64880    0.09700    1.000
    O115     O        0.68693    0.56670    0.03900    1.000
    O116     O        0.72972    0.48220    0.11540    1.000
    O117     O        0.74330    0.45610    0.42970    1.000
    O118     O        0.77230    0.35500    0.43860    1.000
    O119     O        0.57210    0.64480    0.71730    1.000
    O120     O        0.57530    0.46620    0.36520    1.000
    O121     O        0.63490    0.84940    0.74600    1.000
    O122     O        0.58290    0.78190    0.68270    1.000
    O123     O        0.56510    0.86610    0.85030    1.000
    O124     O        0.54490    0.73690    0.86430    1.000
    O125     O        0.60720    0.94880    0.77220    1.000
    O126     O        0.71400    0.05380    0.53690    1.000
    O127     O        0.71648    0.93910    0.61830    1.000
    O128     O        0.78490    0.15790    0.20010    1.000
    O129     O        0.76200    0.17720    0.08450    1.000
    O130     O        0.64800    0.23220    0.70470    1.000
    O131     O        0.57180    0.42260    0.49050    1.000
    C186     C        0.62340    0.67670    0.86810    1.000
    C187     C        0.63440    0.64290    0.79860    1.000
    H71      H        0.62730    0.65190    0.74650    1.000
    C188     C        0.63310    0.66800    0.94520    1.000
    H72      H        0.62510    0.69120    0.99160    1.000
    C189     C        0.65620    0.59470    0.80530    1.000
    C190     C        0.65560    0.62270    0.95350    1.000
    C191     C        0.66620    0.58560    0.88620    1.000
    H73      H        0.68060    0.55300    0.89330    1.000
    C192     C        0.66820    0.55650    0.73020    1.000
    C193     C        0.66830    0.61380    0.03560    1.000
    C194     C        0.74010    0.42190    0.17090    1.000
    C195     C        0.74860    0.34450    0.13600    1.000
    H74      H        0.74650    0.33250    0.07960    1.000
    C196     C        0.74230    0.44010    0.25160    1.000
    H75      H        0.73520    0.49120    0.27220    1.000
    C197     C        0.76000    0.28720    0.18740    1.000
    C198     C        0.75470    0.38520    0.30590    1.000
    C199     C        0.76520    0.30580    0.27230    1.000
    H76      H        0.77480    0.26860    0.30480    1.000
    C200     C        0.75710    0.39890    0.39570    1.000
    C201     C        0.70600    0.01030    0.59370    1.000
    C202     C        0.68280    0.03220    0.63820    1.000
    C203     C        0.54610    0.81690    0.86230    1.000
    C204     C        0.77010    0.19870    0.15300    1.000
    C205     C        0.67570    0.12250    0.64480    1.000
    H77      H        0.68540    0.16490    0.61930    1.000
    C206     C        0.57830    0.70440    0.66350    1.000
    C207     C        0.66750    0.97130    0.67100    1.000
    H78      H        0.67170    0.91260    0.66600    1.000
    C208     C        0.65490    0.14750    0.68790    1.000
    C209     C        0.62710    0.92660    0.74430    1.000
    C210     C        0.64580    0.99390    0.71200    1.000
    C211     C        0.63830    0.08130    0.71800    1.000
    H79      H        0.62300    0.09600    0.74080    1.000
    C212     C        0.58270    0.68000    0.57620    1.000
    C213     C        0.57600    0.59580    0.54950    1.000
    H80      H        0.56850    0.55750    0.58670    1.000
    C214     C        0.59080    0.73850    0.51850    1.000
    H81      H        0.59600    0.79350    0.53590    1.000
    C215     C        0.57500    0.47680    0.44260    1.000
    C216     C        0.59170    0.71790    0.43500    1.000
    C217     C        0.58050    0.57030    0.47100    1.000
    O132     O        0.60170    0.77370    0.37200    1.000
    C218     C        0.58980    0.62960    0.41400    1.000
    H82      H        0.59480    0.61050    0.36160    1.000
    C219     C        0.51950    0.95400    0.87400    1.000
    H83      H        0.53370    0.98200    0.85610    1.000
    C220     C        0.52170    0.86100    0.88800    1.000
    C221     C        0.52270    0.95500    0.90400    1.000
    H84      H        0.53770    0.98360    0.91310    1.000
    C222     C        0.52040    0.86700    0.87100    1.000
    Zn25     Zn       0.74704    0.93899    0.54909    1.000
    Zn26     Zn       0.79943    0.94878    0.65008    1.000
    Zn27     Zn       0.90445    0.67407    0.29350    1.000
    Zn28     Zn       0.92972    0.84885    0.33811    1.000
    O133     O        0.89910    0.77870    0.36190    1.000
    O134     O        0.83570    0.91850    0.16180    1.000
    O135     O        0.81590    0.00660    0.24640    1.000
    O136     O        0.84100    0.85120    0.59700    1.000
    O137     O        0.81307    0.93330    0.53900    1.000
    O138     O        0.77028    0.01780    0.61540    1.000
    O139     O        0.75670    0.04390    0.92970    1.000
    O140     O        0.72770    0.14500    0.93860    1.000
    O141     O        0.92790    0.85520    0.21730    1.000
    O142     O        0.92470    0.03380    0.86520    1.000
    O143     O        0.86510    0.65060    0.24600    1.000
    O144     O        0.91710    0.71810    0.18270    1.000
    O145     O        0.93490    0.63390    0.35030    1.000
    O146     O        0.95510    0.76310    0.36430    1.000
    O147     O        0.89280    0.55120    0.27220    1.000
    O148     O        0.78600    0.44620    0.03690    1.000
    O149     O        0.78352    0.56090    0.11830    1.000
    O150     O        0.71510    0.34210    0.70010    1.000
    O151     O        0.73800    0.32280    0.58450    1.000
    O152     O        0.85200    0.26780    0.20470    1.000
    O153     O        0.92820    0.07740    0.99050    1.000
    C223     C        0.87660    0.82330    0.36810    1.000
    C224     C        0.86560    0.85710    0.29860    1.000
    H85      H        0.87270    0.84810    0.24650    1.000
    C225     C        0.86690    0.83200    0.44520    1.000
    H86      H        0.87490    0.80880    0.49160    1.000
    C226     C        0.84380    0.90530    0.30530    1.000
    C227     C        0.84440    0.87730    0.45350    1.000
    C228     C        0.83380    0.91440    0.38620    1.000
    H87      H        0.81940    0.94700    0.39330    1.000
    C229     C        0.83180    0.94350    0.23020    1.000
    C230     C        0.83170    0.88620    0.53560    1.000
    C231     C        0.75990    0.07810    0.67090    1.000
    C232     C        0.75140    0.15550    0.63600    1.000
    H88      H        0.75350    0.16750    0.57960    1.000
    C233     C        0.75770    0.05990    0.75160    1.000
    H89      H        0.76480    0.00880    0.77220    1.000
    C234     C        0.74000    0.21280    0.68740    1.000
    C235     C        0.74530    0.11480    0.80590    1.000
    C236     C        0.73480    0.19420    0.77230    1.000
    H90      H        0.72520    0.23140    0.80480    1.000
    C237     C        0.74290    0.10110    0.89570    1.000
    C238     C        0.79400    0.48970    0.09370    1.000
    C239     C        0.81720    0.46780    0.13820    1.000
    C240     C        0.95390    0.68310    0.36230    1.000
    C241     C        0.72990    0.30130    0.65300    1.000
    C242     C        0.82430    0.37750    0.14480    1.000
    H91      H        0.81460    0.33510    0.11930    1.000
    C243     C        0.92170    0.79560    0.16350    1.000
    C244     C        0.83250    0.52870    0.17100    1.000
    H92      H        0.82830    0.58740    0.16600    1.000
    C245     C        0.84510    0.35250    0.18790    1.000
    C246     C        0.87290    0.57340    0.24430    1.000
    C247     C        0.85420    0.50610    0.21200    1.000
    C248     C        0.86170    0.41870    0.21800    1.000
    H93      H        0.87700    0.40400    0.24080    1.000
    C249     C        0.91730    0.82000    0.07620    1.000
    C250     C        0.92400    0.90420    0.04950    1.000
    H94      H        0.93150    0.94250    0.08670    1.000
    C251     C        0.90920    0.76150    0.01850    1.000
    H95      H        0.90400    0.70650    0.03590    1.000
    C252     C        0.92500    0.02320    0.94260    1.000
    C253     C        0.90830    0.78210    0.93500    1.000
    C254     C        0.91950    0.92970    0.97100    1.000
    O154     O        0.89830    0.72630    0.87200    1.000
    C255     C        0.91020    0.87040    0.91400    1.000
    H96      H        0.90520    0.88950    0.86160    1.000
    C256     C        0.98050    0.54600    0.37400    1.000
    H97      H        0.96630    0.51800    0.35610    1.000
    C257     C        0.97830    0.63900    0.38800    1.000
    C258     C        0.97730    0.54500    0.40400    1.000
    H98      H        0.96230    0.51640    0.41310    1.000
    C259     C        0.97960    0.63300    0.37100    1.000
    Zn29     Zn       0.24704    0.43899    0.54909    1.000
    Zn30     Zn       0.29943    0.44878    0.65008    1.000
    Zn31     Zn       0.40445    0.17407    0.29350    1.000
    Zn32     Zn       0.42972    0.34885    0.33811    1.000
    O155     O        0.39910    0.27870    0.36190    1.000
    O156     O        0.33570    0.41850    0.16180    1.000
    O157     O        0.31590    0.50660    0.24640    1.000
    O158     O        0.34100    0.35120    0.59700    1.000
    O159     O        0.31307    0.43330    0.53900    1.000
    O160     O        0.27028    0.51780    0.61540    1.000
    O161     O        0.25670    0.54390    0.92970    1.000
    O162     O        0.22770    0.64500    0.93860    1.000
    O163     O        0.42790    0.35520    0.21730    1.000
    O164     O        0.42470    0.53380    0.86520    1.000
    O165     O        0.36510    0.15060    0.24600    1.000
    O166     O        0.41710    0.21810    0.18270    1.000
    O167     O        0.43490    0.13390    0.35030    1.000
    O168     O        0.45510    0.26310    0.36430    1.000
    O169     O        0.39280    0.05120    0.27220    1.000
    O170     O        0.28600    0.94620    0.03690    1.000
    O171     O        0.28352    0.06090    0.11830    1.000
    O172     O        0.21510    0.84210    0.70010    1.000
    O173     O        0.23800    0.82280    0.58450    1.000
    O174     O        0.35200    0.76780    0.20470    1.000
    O175     O        0.42820    0.57740    0.99050    1.000
    C260     C        0.37660    0.32330    0.36810    1.000
    C261     C        0.36560    0.35710    0.29860    1.000
    H99      H        0.37270    0.34810    0.24650    1.000
    C262     C        0.36690    0.33200    0.44520    1.000
    H100     H        0.37490    0.30880    0.49160    1.000
    C263     C        0.34380    0.40530    0.30530    1.000
    C264     C        0.34440    0.37730    0.45350    1.000
    C265     C        0.33380    0.41440    0.38620    1.000
    H101     H        0.31940    0.44700    0.39330    1.000
    C266     C        0.33180    0.44350    0.23020    1.000
    C267     C        0.33170    0.38620    0.53560    1.000
    C268     C        0.25990    0.57810    0.67090    1.000
    C269     C        0.25140    0.65550    0.63600    1.000
    H102     H        0.25350    0.66750    0.57960    1.000
    C270     C        0.25770    0.55990    0.75160    1.000
    H103     H        0.26480    0.50880    0.77220    1.000
    C271     C        0.24000    0.71280    0.68740    1.000
    C272     C        0.24530    0.61480    0.80590    1.000
    C273     C        0.23480    0.69420    0.77230    1.000
    H104     H        0.22520    0.73140    0.80480    1.000
    C274     C        0.24290    0.60110    0.89570    1.000
    C275     C        0.29400    0.98970    0.09370    1.000
    C276     C        0.31720    0.96780    0.13820    1.000
    C277     C        0.45390    0.18310    0.36230    1.000
    C278     C        0.22990    0.80130    0.65300    1.000
    C279     C        0.32430    0.87750    0.14480    1.000
    H105     H        0.31460    0.83510    0.11930    1.000
    C280     C        0.42170    0.29560    0.16350    1.000
    C281     C        0.33250    0.02870    0.17100    1.000
    H106     H        0.32830    0.08740    0.16600    1.000
    C282     C        0.34510    0.85250    0.18790    1.000
    C283     C        0.37290    0.07340    0.24430    1.000
    C284     C        0.35420    0.00610    0.21200    1.000
    C285     C        0.36170    0.91870    0.21800    1.000
    H107     H        0.37700    0.90400    0.24080    1.000
    C286     C        0.41730    0.32000    0.07620    1.000
    C287     C        0.42400    0.40420    0.04950    1.000
    H108     H        0.43150    0.44250    0.08670    1.000
    C288     C        0.40920    0.26150    0.01850    1.000
    H109     H        0.40400    0.20650    0.03590    1.000
    C289     C        0.42500    0.52320    0.94260    1.000
    C290     C        0.40830    0.28210    0.93500    1.000
    C291     C        0.41950    0.42970    0.97100    1.000
    O176     O        0.39830    0.22630    0.87200    1.000
    C292     C        0.41020    0.37040    0.91400    1.000
    H110     H        0.40520    0.38950    0.86160    1.000
    C293     C        0.48050    0.04600    0.37400    1.000
    H111     H        0.46630    0.01800    0.35610    1.000
    C294     C        0.47830    0.13900    0.38800    1.000
    C295     C        0.47730    0.04500    0.40400    1.000
    H112     H        0.46230    0.01640    0.41310    1.000
    C296     C        0.47960    0.13300    0.37100    1.000
    O177     O        0.00000    0.40900    0.38600    1.000
    C297     C        0.00000    0.49800    0.38300    1.000
    C298     C        0.00000    0.67600    0.36900    1.000
    H113     H        0.00000    0.72990    0.34160    1.000
    C299     C        0.00000    0.50800    0.41900    1.000
    O178     O        0.00000    0.41600    0.43600    1.000
    C300     C        0.00000    0.67600    0.38200    1.000
    H114     H        0.00000    0.73480    0.39680    1.000
    O179     O        0.50000    0.90900    0.38600    1.000
    C301     C        0.50000    0.99800    0.38300    1.000
    C302     C        0.50000    0.17600    0.36900    1.000
    H115     H        0.50000    0.22990    0.34160    1.000
    C303     C        0.50000    0.00800    0.41900    1.000
    O180     O        0.50000    0.91600    0.43600    1.000
    C304     C        0.50000    0.17600    0.38200    1.000
    H116     H        0.50000    0.23480    0.39680    1.000
    O181     O        0.00000    0.59100    0.88600    1.000
    C305     C        0.00000    0.50200    0.88300    1.000
    C306     C        0.00000    0.32400    0.86900    1.000
    H117     H        0.00000    0.27010    0.84160    1.000
    C307     C        0.00000    0.49200    0.91900    1.000
    O182     O        0.00000    0.58400    0.93600    1.000
    C308     C        0.00000    0.32400    0.88200    1.000
    H118     H        0.00000    0.26520    0.89680    1.000
    O183     O        0.50000    0.09100    0.88600    1.000
    C309     C        0.50000    0.00200    0.88300    1.000
    C310     C        0.50000    0.82400    0.86900    1.000
    H119     H        0.50000    0.77010    0.84160    1.000
    C311     C        0.50000    0.99200    0.91900    1.000
    O184     O        0.50000    0.08400    0.93600    1.000
    C312     C        0.50000    0.82400    0.88200    1.000
    H120     H        0.50000    0.76520    0.89680    1.000
