# CIF file generated by openbabel 3.1.0, see https://openbabel.org
data_I
_chemical_name_common 'image0'
_cell_length_a 10.07
_cell_length_b 13.107
_cell_length_c 15.216
_cell_angle_alpha 78.42
_cell_angle_beta 76.527
_cell_angle_gamma 68.204
_space_group_name_H-M_alt 'P 1'
_space_group_name_Hall 'P 1'
loop_
    _symmetry_equiv_pos_as_xyz
    x,y,z
loop_
    _atom_site_label
    _atom_site_type_symbol
    _atom_site_fract_x
    _atom_site_fract_y
    _atom_site_fract_z
    _atom_site_occupancy
    Ni1      Ni       0.01571    0.57777    0.34037    1.000
    Ni2      Ni       0.73771    0.80245    0.26034    1.000
    C1       C        0.24800    0.62920    0.20360    1.000
    C2       C        0.40480    0.59990    0.16120    1.000
    C3       C        0.44530    0.62710    0.06920    1.000
    H1       H        0.37450    0.66270    0.03290    1.000
    C4       C        0.59020    0.60210    0.03050    1.000
    H2       H        0.61580    0.61970    0.96800    1.000
    C5       C        0.51090    0.54650    0.21340    1.000
    H3       H        0.48490    0.52510    0.27510    1.000
    C6       C        0.65510    0.52430    0.17550    1.000
    H4       H        0.72550    0.49050    0.21240    1.000
    C7       C        0.69700    0.55180    0.08236    1.000
    C8       C        0.85240    0.52770    0.04055    1.000
    C9       C        0.90490    0.48070    0.95986    1.000
    H5       H        0.84090    0.46730    0.93210    1.000
    C10      C        0.95030    0.54670    0.08057    1.000
    C11      C        0.90650    0.60010    0.16613    1.000
    C12      C        0.69710    0.61730    0.40770    1.000
    C13      C        0.59370    0.55940    0.45945    1.000
    C14      C        0.63000    0.44970    0.44842    1.000
    H6       H        0.71920    0.41530    0.41350    1.000
    C15      C        0.53940    0.38840    0.48709    1.000
    C16      C        0.58560    0.27240    0.46698    1.000
    C17      C        0.72970    0.20410    0.46650    1.000
    H7       H        0.79430    0.22970    0.48270    1.000
    C18      C        0.77700    0.09920    0.44240    1.000
    H8       H        0.87330    0.05430    0.44290    1.000
    C19      C        0.49230    0.23120    0.44440    1.000
    H9       H        0.39510    0.27480    0.44600    1.000
    C20      C        0.54100    0.12590    0.41950    1.000
    H10      H        0.47670    0.09950    0.40390    1.000
    C21      C        0.68480    0.05970    0.41750    1.000
    C22      C        0.74180    0.94840    0.38340    1.000
    O1       O        0.15840    0.71055    0.16631    1.000
    O2       O        0.21800    0.56941    0.27525    1.000
    O3       O        0.81250    0.69541    0.16506    1.000
    O4       O        0.97070    0.54418    0.22986    1.000
    O5       O        0.82650    0.56983    0.41990    1.000
    O6       O        0.64990    0.70293    0.35602    1.000
    O7       O        0.86690    0.88792    0.39769    1.000
    O8       O        0.66420    0.92624    0.34258    1.000
    O9       O        0.93637    0.74297    0.29644    1.000
    H11      H        0.01360    0.74450    0.25970    1.000
    H12      H        0.92900    0.77550    0.34130    1.000
    O10      O        0.81120    0.91610    0.15849    1.000
    H13      H        0.73070    0.90530    0.16730    1.000
    H14      H        0.82820    0.91820    0.21010    1.000
    Ni3      Ni       0.98429    0.42223    0.65963    1.000
    Ni4      Ni       0.26229    0.19755    0.73966    1.000
    C23      C        0.75200    0.37080    0.79640    1.000
    C24      C        0.59520    0.40010    0.83880    1.000
    C25      C        0.55470    0.37290    0.93080    1.000
    H15      H        0.62550    0.33730    0.96710    1.000
    C26      C        0.40980    0.39790    0.96950    1.000
    H16      H        0.38420    0.38030    0.03200    1.000
    C27      C        0.48910    0.45350    0.78660    1.000
    H17      H        0.51510    0.47490    0.72490    1.000
    C28      C        0.34490    0.47570    0.82450    1.000
    H18      H        0.27450    0.50950    0.78760    1.000
    C29      C        0.30300    0.44820    0.91764    1.000
    C30      C        0.14760    0.47230    0.95945    1.000
    C31      C        0.09510    0.51930    0.04014    1.000
    H19      H        0.15910    0.53270    0.06790    1.000
    C32      C        0.04970    0.45330    0.91943    1.000
    C33      C        0.09350    0.39990    0.83387    1.000
    C34      C        0.30290    0.38270    0.59230    1.000
    C35      C        0.40630    0.44060    0.54055    1.000
    C36      C        0.37000    0.55030    0.55158    1.000
    H20      H        0.28080    0.58470    0.58650    1.000
    C37      C        0.46060    0.61160    0.51291    1.000
    C38      C        0.41440    0.72760    0.53302    1.000
    C39      C        0.27030    0.79590    0.53350    1.000
    H21      H        0.20570    0.77030    0.51730    1.000
    C40      C        0.22300    0.90080    0.55760    1.000
    H22      H        0.12670    0.94570    0.55710    1.000
    C41      C        0.50770    0.76880    0.55560    1.000
    H23      H        0.60490    0.72520    0.55400    1.000
    C42      C        0.45900    0.87410    0.58050    1.000
    H24      H        0.52330    0.90050    0.59610    1.000
    C43      C        0.31520    0.94030    0.58250    1.000
    C44      C        0.25820    0.05160    0.61660    1.000
    O11      O        0.84160    0.28945    0.83369    1.000
    O12      O        0.78200    0.43059    0.72475    1.000
    O13      O        0.18750    0.30459    0.83494    1.000
    O14      O        0.02930    0.45582    0.77014    1.000
    O15      O        0.17350    0.43017    0.58010    1.000
    O16      O        0.35010    0.29707    0.64398    1.000
    O17      O        0.13310    0.11208    0.60231    1.000
    O18      O        0.33580    0.07376    0.65742    1.000
    O19      O        0.06363    0.25703    0.70356    1.000
    H25      H        0.98640    0.25550    0.74030    1.000
    H26      H        0.07100    0.22450    0.65870    1.000
    O20      O        0.18880    0.08390    0.84151    1.000
    H27      H        0.26930    0.09470    0.83270    1.000
    H28      H        0.17180    0.08180    0.78990    1.000
