# CIF file generated by openbabel 3.1.0, see https://openbabel.org
data_I
_chemical_name_common 'image0'
_cell_length_a 15.673
_cell_length_b 15.673
_cell_length_c 6.95
_cell_angle_alpha 90
_cell_angle_beta 90
_cell_angle_gamma 120
_space_group_name_H-M_alt 'P 1'
_space_group_name_Hall 'P 1'
loop_
    _symmetry_equiv_pos_as_xyz
    x,y,z
loop_
    _atom_site_label
    _atom_site_type_symbol
    _atom_site_fract_x
    _atom_site_fract_y
    _atom_site_fract_z
    _atom_site_occupancy
    Au1      Au       0.26100    0.73875    0.99981    1.000
    N1       N        0.40590    0.89140    0.69400    1.000
    C1       C        0.35000    0.83070    0.79900    1.000
    N2       N        0.51500    0.10980    0.69300    1.000
    C2       C        0.51970    0.16650    0.80200    1.000
    N3       N        0.37360    0.00050    0.37900    1.000
    C3       C        0.28570    0.91470    0.33900    1.000
    C4       C        0.20600    0.92020    0.26600    1.000
    C5       C        0.21420    0.01150    0.23300    1.000
    C6       C        0.30210    0.09730    0.27300    1.000
    C7       C        0.38190    0.09180    0.34600    1.000
    C8       C        0.10940    0.85200    0.24700    1.000
    N4       N        0.02070    0.78700    0.22700    1.000
    Au2      Au       0.26125    0.52225    0.99981    1.000
    N5       N        0.10860    0.51450    0.69400    1.000
    C9       C        0.16930    0.51930    0.79900    1.000
    N6       N        0.89020    0.40520    0.69300    1.000
    C10      C        0.83350    0.35320    0.80200    1.000
    N7       N        0.99950    0.37310    0.37900    1.000
    C11      C        0.08530    0.37100    0.33900    1.000
    C12      C        0.07980    0.28580    0.26600    1.000
    C13      C        0.98850    0.20270    0.23300    1.000
    C14      C        0.90270    0.20480    0.27300    1.000
    C15      C        0.90820    0.29010    0.34600    1.000
    C16      C        0.14800    0.25740    0.24700    1.000
    N8       N        0.21300    0.23370    0.22700    1.000
    Au3      Au       0.47775    0.73900    0.99981    1.000
    N9       N        0.48550    0.59410    0.69400    1.000
    C17      C        0.48070    0.65000    0.79900    1.000
    N10      N        0.59480    0.48500    0.69300    1.000
    C18      C        0.64680    0.48030    0.80200    1.000
    N11      N        0.62690    0.62640    0.37900    1.000
    C19      C        0.62900    0.71430    0.33900    1.000
    C20      C        0.71420    0.79400    0.26600    1.000
    C21      C        0.79730    0.78580    0.23300    1.000
    C22      C        0.79520    0.69790    0.27300    1.000
    C23      C        0.70990    0.61810    0.34600    1.000
    C24      C        0.74260    0.89060    0.24700    1.000
    N12      N        0.76630    0.97930    0.22700    1.000
    Au4      Au       0.73900    0.26125    0.00019    1.000
    N13      N        0.59410    0.10860    0.30600    1.000
    C25      C        0.65000    0.16930    0.20100    1.000
    N14      N        0.48500    0.89020    0.30700    1.000
    C26      C        0.48030    0.83350    0.19800    1.000
    N15      N        0.62640    0.99950    0.62100    1.000
    C27      C        0.71430    0.08530    0.66100    1.000
    C28      C        0.79400    0.07980    0.73400    1.000
    C29      C        0.78580    0.98850    0.76700    1.000
    C30      C        0.69790    0.90270    0.72700    1.000
    C31      C        0.61810    0.90820    0.65400    1.000
    C32      C        0.89060    0.14800    0.75300    1.000
    N16      N        0.97930    0.21300    0.77300    1.000
    Au5      Au       0.73875    0.47775    0.00019    1.000
    N17      N        0.89140    0.48550    0.30600    1.000
    C33      C        0.83070    0.48070    0.20100    1.000
    N18      N        0.10980    0.59480    0.30700    1.000
    C34      C        0.16650    0.64680    0.19800    1.000
    N19      N        0.00050    0.62690    0.62100    1.000
    C35      C        0.91470    0.62900    0.66100    1.000
    C36      C        0.92020    0.71420    0.73400    1.000
    C37      C        0.01150    0.79730    0.76700    1.000
    C38      C        0.09730    0.79520    0.72700    1.000
    C39      C        0.09180    0.70990    0.65400    1.000
    C40      C        0.85200    0.74260    0.75300    1.000
    N20      N        0.78700    0.76630    0.77300    1.000
    Au6      Au       0.52225    0.26100    0.00019    1.000
    N21      N        0.51450    0.40590    0.30600    1.000
    C41      C        0.51930    0.35000    0.20100    1.000
    N22      N        0.40520    0.51500    0.30700    1.000
    C42      C        0.35320    0.51970    0.19800    1.000
    N23      N        0.37310    0.37360    0.62100    1.000
    C43      C        0.37100    0.28570    0.66100    1.000
    C44      C        0.28580    0.20600    0.73400    1.000
    C45      C        0.20270    0.21420    0.76700    1.000
    C46      C        0.20480    0.30210    0.72700    1.000
    C47      C        0.29010    0.38190    0.65400    1.000
    C48      C        0.25740    0.10940    0.75300    1.000
    N24      N        0.23370    0.02070    0.77300    1.000
    Fe1      Fe       0.50000    0.00000    0.50000    1.000
    Fe2      Fe       0.00000    0.50000    0.50000    1.000
    Fe3      Fe       0.50000    0.50000    0.50000    1.000
