# CIF file generated by openbabel 3.1.0, see https://openbabel.org
data_I
_chemical_name_common 'image0'
_cell_length_a 22.1211
_cell_length_b 17.5536
_cell_length_c 7.048
_cell_angle_alpha 90
_cell_angle_beta 97.06
_cell_angle_gamma 90
_space_group_name_H-M_alt 'P 1'
_space_group_name_Hall 'P 1'
loop_
    _symmetry_equiv_pos_as_xyz
    x,y,z
loop_
    _atom_site_label
    _atom_site_type_symbol
    _atom_site_fract_x
    _atom_site_fract_y
    _atom_site_fract_z
    _atom_site_occupancy
    H1       H        0.13600    0.96190    0.38570    1.000
    O1       O        0.16783    0.91270    0.80810    1.000
    O2       O        0.25393    0.91715    0.67250    1.000
    O3       O        0.24003    0.91656    0.25860    1.000
    O4       O        0.14284    0.88114    0.24310    1.000
    H2       H        0.12260    0.84000    0.22820    1.000
    C1       C        0.24870    0.82800    0.92070    1.000
    H3       H        0.28870    0.84640    0.98610    1.000
    C2       C        0.20876    0.80600    0.07420    1.000
    H4       H        0.16890    0.78680    0.00980    1.000
    C3       C        0.26070    0.75770    0.79900    1.000
    H5       H        0.28740    0.77240    0.70210    1.000
    H6       H        0.22170    0.73900    0.73110    1.000
    C4       C        0.22078    0.89150    0.78960    1.000
    C5       C        0.19660    0.87350    0.20110    1.000
    N1       N        0.04692    0.07676    0.59040    1.000
    C6       C        0.04740    0.15390    0.58980    1.000
    H7       H        0.08160    0.18010    0.65350    1.000
    C7       C        0.36930    0.06450    0.48060    1.000
    H8       H        0.34750    0.11120    0.47670    1.000
    C8       C        0.43280    0.06700    0.49140    1.000
    H9       H        0.45320    0.11480    0.49530    1.000
    O5       O        0.08820    0.75670    0.68600    1.000
    H10      H        0.63600    0.46190    0.38570    1.000
    O6       O        0.66783    0.41270    0.80810    1.000
    O7       O        0.75393    0.41715    0.67250    1.000
    O8       O        0.74003    0.41656    0.25860    1.000
    O9       O        0.64284    0.38114    0.24310    1.000
    H11      H        0.62260    0.34000    0.22820    1.000
    C9       C        0.74870    0.32800    0.92070    1.000
    H12      H        0.78870    0.34640    0.98610    1.000
    C10      C        0.70876    0.30600    0.07420    1.000
    H13      H        0.66890    0.28680    0.00980    1.000
    C11      C        0.76070    0.25770    0.79900    1.000
    H14      H        0.78740    0.27240    0.70210    1.000
    H15      H        0.72170    0.23900    0.73110    1.000
    C12      C        0.72078    0.39150    0.78960    1.000
    C13      C        0.69660    0.37350    0.20110    1.000
    N2       N        0.54692    0.57676    0.59040    1.000
    C14      C        0.54740    0.65390    0.58980    1.000
    H16      H        0.58160    0.68010    0.65350    1.000
    C15      C        0.86930    0.56450    0.48060    1.000
    H17      H        0.84750    0.61120    0.47670    1.000
    C16      C        0.93280    0.56700    0.49140    1.000
    H18      H        0.95320    0.61480    0.49530    1.000
    O10      O        0.58820    0.25670    0.68600    1.000
    H19      H        0.86400    0.96190    0.61430    1.000
    O11      O        0.83217    0.91270    0.19190    1.000
    O12      O        0.74607    0.91715    0.32750    1.000
    O13      O        0.75997    0.91656    0.74140    1.000
    O14      O        0.85716    0.88114    0.75690    1.000
    H20      H        0.87740    0.84000    0.77180    1.000
    C17      C        0.75130    0.82800    0.07930    1.000
    H21      H        0.71130    0.84640    0.01390    1.000
    C18      C        0.79124    0.80600    0.92580    1.000
    H22      H        0.83110    0.78680    0.99020    1.000
    C19      C        0.73930    0.75770    0.20100    1.000
    H23      H        0.71260    0.77240    0.29790    1.000
    H24      H        0.77830    0.73900    0.26890    1.000
    C20      C        0.77922    0.89150    0.21040    1.000
    C21      C        0.80340    0.87350    0.79890    1.000
    N3       N        0.95308    0.07676    0.40960    1.000
    C22      C        0.95260    0.15390    0.41020    1.000
    H25      H        0.91840    0.18010    0.34650    1.000
    C23      C        0.63070    0.06450    0.51940    1.000
    H26      H        0.65250    0.11120    0.52330    1.000
    C24      C        0.56720    0.06700    0.50860    1.000
    H27      H        0.54680    0.11480    0.50470    1.000
    O15      O        0.91180    0.75670    0.31400    1.000
    H28      H        0.36400    0.46190    0.61430    1.000
    O16      O        0.33217    0.41270    0.19190    1.000
    O17      O        0.24607    0.41715    0.32750    1.000
    O18      O        0.25997    0.41656    0.74140    1.000
    O19      O        0.35716    0.38114    0.75690    1.000
    H29      H        0.37740    0.34000    0.77180    1.000
    C25      C        0.25130    0.32800    0.07930    1.000
    H30      H        0.21130    0.34640    0.01390    1.000
    C26      C        0.29124    0.30600    0.92580    1.000
    H31      H        0.33110    0.28680    0.99020    1.000
    C27      C        0.23930    0.25770    0.20100    1.000
    H32      H        0.21260    0.27240    0.29790    1.000
    H33      H        0.27830    0.23900    0.26890    1.000
    C28      C        0.27922    0.39150    0.21040    1.000
    C29      C        0.30340    0.37350    0.79890    1.000
    N4       N        0.45308    0.57676    0.40960    1.000
    C30      C        0.45260    0.65390    0.41020    1.000
    H34      H        0.41840    0.68010    0.34650    1.000
    C31      C        0.13070    0.56450    0.51940    1.000
    H35      H        0.15250    0.61120    0.52330    1.000
    C32      C        0.06720    0.56700    0.50860    1.000
    H36      H        0.04680    0.61480    0.50470    1.000
    O20      O        0.41180    0.25670    0.31400    1.000
    H37      H        0.86400    0.03810    0.61430    1.000
    O21      O        0.83217    0.08730    0.19190    1.000
    O22      O        0.74607    0.08285    0.32750    1.000
    O23      O        0.75997    0.08344    0.74140    1.000
    O24      O        0.85716    0.11886    0.75690    1.000
    H38      H        0.87740    0.16000    0.77180    1.000
    C33      C        0.75130    0.17200    0.07930    1.000
    H39      H        0.71130    0.15360    0.01390    1.000
    C34      C        0.79124    0.19400    0.92580    1.000
    H40      H        0.83110    0.21320    0.99020    1.000
    C35      C        0.73930    0.24230    0.20100    1.000
    H41      H        0.71260    0.22760    0.29790    1.000
    H42      H        0.77830    0.26100    0.26890    1.000
    C36      C        0.77922    0.10850    0.21040    1.000
    C37      C        0.80340    0.12650    0.79890    1.000
    N5       N        0.95308    0.92324    0.40960    1.000
    C38      C        0.95260    0.84610    0.41020    1.000
    H43      H        0.91840    0.81990    0.34650    1.000
    C39      C        0.63070    0.93550    0.51940    1.000
    H44      H        0.65250    0.88880    0.52330    1.000
    C40      C        0.56720    0.93300    0.50860    1.000
    H45      H        0.54680    0.88520    0.50470    1.000
    O25      O        0.91180    0.24330    0.31400    1.000
    H46      H        0.36400    0.53810    0.61430    1.000
    O26      O        0.33217    0.58730    0.19190    1.000
    O27      O        0.24607    0.58285    0.32750    1.000
    O28      O        0.25997    0.58344    0.74140    1.000
    O29      O        0.35716    0.61886    0.75690    1.000
    H47      H        0.37740    0.66000    0.77180    1.000
    C41      C        0.25130    0.67200    0.07930    1.000
    H48      H        0.21130    0.65360    0.01390    1.000
    C42      C        0.29124    0.69400    0.92580    1.000
    H49      H        0.33110    0.71320    0.99020    1.000
    C43      C        0.23930    0.74230    0.20100    1.000
    H50      H        0.21260    0.72760    0.29790    1.000
    H51      H        0.27830    0.76100    0.26890    1.000
    C44      C        0.27922    0.60850    0.21040    1.000
    C45      C        0.30340    0.62650    0.79890    1.000
    N6       N        0.45308    0.42324    0.40960    1.000
    C46      C        0.45260    0.34610    0.41020    1.000
    H52      H        0.41840    0.31990    0.34650    1.000
    C47      C        0.13070    0.43550    0.51940    1.000
    H53      H        0.15250    0.38880    0.52330    1.000
    C48      C        0.06720    0.43300    0.50860    1.000
    H54      H        0.04680    0.38520    0.50470    1.000
    O30      O        0.41180    0.74330    0.31400    1.000
    H55      H        0.13600    0.03810    0.38570    1.000
    O31      O        0.16783    0.08730    0.80810    1.000
    O32      O        0.25393    0.08285    0.67250    1.000
    O33      O        0.24003    0.08344    0.25860    1.000
    O34      O        0.14284    0.11886    0.24310    1.000
    H56      H        0.12260    0.16000    0.22820    1.000
    C49      C        0.24870    0.17200    0.92070    1.000
    H57      H        0.28870    0.15360    0.98610    1.000
    C50      C        0.20876    0.19400    0.07420    1.000
    H58      H        0.16890    0.21320    0.00980    1.000
    C51      C        0.26070    0.24230    0.79900    1.000
    H59      H        0.28740    0.22760    0.70210    1.000
    H60      H        0.22170    0.26100    0.73110    1.000
    C52      C        0.22078    0.10850    0.78960    1.000
    C53      C        0.19660    0.12650    0.20110    1.000
    N7       N        0.04692    0.92324    0.59040    1.000
    C54      C        0.04740    0.84610    0.58980    1.000
    H61      H        0.08160    0.81990    0.65350    1.000
    C55      C        0.36930    0.93550    0.48060    1.000
    H62      H        0.34750    0.88880    0.47670    1.000
    C56      C        0.43280    0.93300    0.49140    1.000
    H63      H        0.45320    0.88520    0.49530    1.000
    O35      O        0.08820    0.24330    0.68600    1.000
    H64      H        0.63600    0.53810    0.38570    1.000
    O36      O        0.66783    0.58730    0.80810    1.000
    O37      O        0.75393    0.58285    0.67250    1.000
    O38      O        0.74003    0.58344    0.25860    1.000
    O39      O        0.64284    0.61886    0.24310    1.000
    H65      H        0.62260    0.66000    0.22820    1.000
    C57      C        0.74870    0.67200    0.92070    1.000
    H66      H        0.78870    0.65360    0.98610    1.000
    C58      C        0.70876    0.69400    0.07420    1.000
    H67      H        0.66890    0.71320    0.00980    1.000
    C59      C        0.76070    0.74230    0.79900    1.000
    H68      H        0.78740    0.72760    0.70210    1.000
    H69      H        0.72170    0.76100    0.73110    1.000
    C60      C        0.72078    0.60850    0.78960    1.000
    C61      C        0.69660    0.62650    0.20110    1.000
    N8       N        0.54692    0.42324    0.59040    1.000
    C62      C        0.54740    0.34610    0.58980    1.000
    H70      H        0.58160    0.31990    0.65350    1.000
    C63      C        0.86930    0.43550    0.48060    1.000
    H71      H        0.84750    0.38880    0.47670    1.000
    C64      C        0.93280    0.43300    0.49140    1.000
    H72      H        0.95320    0.38520    0.49530    1.000
    O40      O        0.58820    0.74330    0.68600    1.000
    Ni1      Ni       0.24423    0.00000    0.46905    1.000
    Ni2      Ni       0.11447    0.00000    0.70499    1.000
    O41      O        0.14990    0.00000    0.45170    1.000
    N9       N        0.33820    0.00000    0.47560    1.000
    C65      C        0.46630    0.00000    0.49660    1.000
    Ni3      Ni       0.74423    0.50000    0.46905    1.000
    Ni4      Ni       0.61447    0.50000    0.70499    1.000
    O42      O        0.64990    0.50000    0.45170    1.000
    N10      N        0.83820    0.50000    0.47560    1.000
    C66      C        0.96630    0.50000    0.49660    1.000
    Ni5      Ni       0.75577    0.00000    0.53095    1.000
    Ni6      Ni       0.88553    0.00000    0.29501    1.000
    O43      O        0.85010    0.00000    0.54830    1.000
    N11      N        0.66180    0.00000    0.52440    1.000
    C67      C        0.53370    0.00000    0.50340    1.000
    Ni7      Ni       0.25577    0.50000    0.53095    1.000
    Ni8      Ni       0.38553    0.50000    0.29501    1.000
    O44      O        0.35010    0.50000    0.54830    1.000
    N12      N        0.16180    0.50000    0.52440    1.000
    C68      C        0.03370    0.50000    0.50340    1.000
    C69      C        0.00000    0.04330    0.50000    1.000
    C70      C        0.00000    0.19440    0.50000    1.000
    H73      H        0.00000    0.24850    0.50000    1.000
    C71      C        0.50000    0.54330    0.50000    1.000
    C72      C        0.50000    0.69440    0.50000    1.000
    H74      H        0.50000    0.74850    0.50000    1.000
    C73      C        0.00000    0.95670    0.50000    1.000
    C74      C        0.00000    0.80560    0.50000    1.000
    H75      H        0.00000    0.75150    0.50000    1.000
    C75      C        0.50000    0.45670    0.50000    1.000
    C76      C        0.50000    0.30560    0.50000    1.000
    H76      H        0.50000    0.25150    0.50000    1.000
