# CIF file generated by openbabel 3.1.0, see https://openbabel.org
data_I
_chemical_name_common 'image0'
_cell_length_a 22.058
_cell_length_b 16.9068
_cell_length_c 16.24
_cell_angle_alpha 90
_cell_angle_beta 121.36
_cell_angle_gamma 90
_space_group_name_H-M_alt 'P 1'
_space_group_name_Hall 'P 1'
loop_
    _symmetry_equiv_pos_as_xyz
    x,y,z
loop_
    _atom_site_label
    _atom_site_type_symbol
    _atom_site_fract_x
    _atom_site_fract_y
    _atom_site_fract_z
    _atom_site_occupancy
    O1       O        0.96420    0.08270    0.55890    1.000
    O2       O        0.08130    0.08440    0.63510    1.000
    O3       O        0.35180    0.13450    0.52930    1.000
    C1       C        0.00330    0.25470    0.96170    1.000
    H1       H        0.00610    0.20980    0.93070    1.000
    C2       C        0.00520    0.33100    0.93530    1.000
    C3       C        0.01990    0.35520    0.86660    1.000
    C4       C        0.02510    0.43370    0.84320    1.000
    C5       C        0.03860    0.46210    0.77200    1.000
    H2       H        0.04640    0.43050    0.73140    1.000
    C6       C        0.02050    0.29360    0.80180    1.000
    C7       C        0.96300    0.26300    0.72850    1.000
    H3       H        0.91940    0.28310    0.71460    1.000
    C8       C        0.96270    0.20350    0.67080    1.000
    H4       H        0.91990    0.18370    0.62090    1.000
    C9       C        0.02530    0.17350    0.68670    1.000
    C10      C        0.08230    0.20150    0.75830    1.000
    H5       H        0.12530    0.17950    0.77230    1.000
    C11      C        0.08390    0.26340    0.81710    1.000
    H6       H        0.12700    0.28380    0.86570    1.000
    C12      C        0.02280    0.10750    0.62250    1.000
    C13      C        0.37960    0.07490    0.52650    1.000
    C14      C        0.46810    0.14080    0.50580    1.000
    H7       H        0.44690    0.18770    0.50780    1.000
    C15      C        0.44360    0.07140    0.51290    1.000
    O4       O        0.03580    0.08270    0.44110    1.000
    O5       O        0.91870    0.08440    0.36490    1.000
    O6       O        0.64820    0.13450    0.47070    1.000
    C16      C        0.99670    0.25470    0.03830    1.000
    H8       H        0.99390    0.20980    0.06930    1.000
    C17      C        0.99480    0.33100    0.06470    1.000
    C18      C        0.98010    0.35520    0.13340    1.000
    C19      C        0.97490    0.43370    0.15680    1.000
    C20      C        0.96140    0.46210    0.22800    1.000
    H9       H        0.95360    0.43050    0.26860    1.000
    C21      C        0.97950    0.29360    0.19820    1.000
    C22      C        0.03700    0.26300    0.27150    1.000
    H10      H        0.08060    0.28310    0.28540    1.000
    C23      C        0.03730    0.20350    0.32920    1.000
    H11      H        0.08010    0.18370    0.37910    1.000
    C24      C        0.97470    0.17350    0.31330    1.000
    C25      C        0.91770    0.20150    0.24170    1.000
    H12      H        0.87470    0.17950    0.22770    1.000
    C26      C        0.91610    0.26340    0.18290    1.000
    H13      H        0.87300    0.28380    0.13430    1.000
    C27      C        0.97720    0.10750    0.37750    1.000
    C28      C        0.62040    0.07490    0.47350    1.000
    C29      C        0.53190    0.14080    0.49420    1.000
    H14      H        0.55310    0.18770    0.49220    1.000
    C30      C        0.55640    0.07140    0.48710    1.000
    O7       O        0.03580    0.91730    0.44110    1.000
    O8       O        0.91870    0.91560    0.36490    1.000
    O9       O        0.64820    0.86550    0.47070    1.000
    C31      C        0.99670    0.74530    0.03830    1.000
    H15      H        0.99390    0.79020    0.06930    1.000
    C32      C        0.99480    0.66900    0.06470    1.000
    C33      C        0.98010    0.64480    0.13340    1.000
    C34      C        0.97490    0.56630    0.15680    1.000
    C35      C        0.96140    0.53790    0.22800    1.000
    H16      H        0.95360    0.56950    0.26860    1.000
    C36      C        0.97950    0.70640    0.19820    1.000
    C37      C        0.03700    0.73700    0.27150    1.000
    H17      H        0.08060    0.71690    0.28540    1.000
    C38      C        0.03730    0.79650    0.32920    1.000
    H18      H        0.08010    0.81630    0.37910    1.000
    C39      C        0.97470    0.82650    0.31330    1.000
    C40      C        0.91770    0.79850    0.24170    1.000
    H19      H        0.87470    0.82050    0.22770    1.000
    C41      C        0.91610    0.73660    0.18290    1.000
    H20      H        0.87300    0.71620    0.13430    1.000
    C42      C        0.97720    0.89250    0.37750    1.000
    C43      C        0.62040    0.92510    0.47350    1.000
    C44      C        0.53190    0.85920    0.49420    1.000
    H21      H        0.55310    0.81230    0.49220    1.000
    C45      C        0.55640    0.92860    0.48710    1.000
    O10      O        0.96420    0.91730    0.55890    1.000
    O11      O        0.08130    0.91560    0.63510    1.000
    O12      O        0.35180    0.86550    0.52930    1.000
    C46      C        0.00330    0.74530    0.96170    1.000
    H22      H        0.00610    0.79020    0.93070    1.000
    C47      C        0.00520    0.66900    0.93530    1.000
    C48      C        0.01990    0.64480    0.86660    1.000
    C49      C        0.02510    0.56630    0.84320    1.000
    C50      C        0.03860    0.53790    0.77200    1.000
    H23      H        0.04640    0.56950    0.73140    1.000
    C51      C        0.02050    0.70640    0.80180    1.000
    C52      C        0.96300    0.73700    0.72850    1.000
    H24      H        0.91940    0.71690    0.71460    1.000
    C53      C        0.96270    0.79650    0.67080    1.000
    H25      H        0.91990    0.81630    0.62090    1.000
    C54      C        0.02530    0.82650    0.68670    1.000
    C55      C        0.08230    0.79850    0.75830    1.000
    H26      H        0.12530    0.82050    0.77230    1.000
    C56      C        0.08390    0.73660    0.81710    1.000
    H27      H        0.12700    0.71620    0.86570    1.000
    C57      C        0.02280    0.89250    0.62250    1.000
    C58      C        0.37960    0.92510    0.52650    1.000
    C59      C        0.46810    0.85920    0.50580    1.000
    H28      H        0.44690    0.81230    0.50780    1.000
    C60      C        0.44360    0.92860    0.51290    1.000
    Zn1      Zn       0.07820    0.00000    0.54794    1.000
    N1       N        0.17220    0.00000    0.55240    1.000
    N2       N        0.35630    0.00000    0.53620    1.000
    C61      C        0.23320    0.00000    0.62780    1.000
    H29      H        0.23590    0.00000    0.68690    1.000
    C62      C        0.30080    0.00000    0.62900    1.000
    H30      H        0.34450    0.00000    0.68650    1.000
    C63      C        0.29610    0.00000    0.54680    1.000
    C64      C        0.23020    0.00000    0.46270    1.000
    H31      H        0.22770    0.00000    0.40380    1.000
    C65      C        0.16410    0.00000    0.46380    1.000
    H32      H        0.11960    0.00000    0.40750    1.000
    C66      C        0.46770    0.00000    0.50380    1.000
    Zn2      Zn       0.92180    0.00000    0.45206    1.000
    N3       N        0.82780    0.00000    0.44760    1.000
    N4       N        0.64370    0.00000    0.46380    1.000
    C67      C        0.76680    0.00000    0.37220    1.000
    H33      H        0.76410    0.00000    0.31310    1.000
    C68      C        0.69920    0.00000    0.37100    1.000
    H34      H        0.65550    0.00000    0.31350    1.000
    C69      C        0.70390    0.00000    0.45320    1.000
    C70      C        0.76980    0.00000    0.53730    1.000
    H35      H        0.77230    0.00000    0.59620    1.000
    C71      C        0.83590    0.00000    0.53620    1.000
    H36      H        0.88040    0.00000    0.59250    1.000
    C72      C        0.53230    0.00000    0.49620    1.000
    Mn1      Mn       0.00000    0.50000    0.00000    1.000
    N5       N        0.01790    0.50000    0.89140    1.000
    N6       N        0.98210    0.50000    0.10860    1.000
    N7       N        0.00000    0.38070    0.00000    1.000
    N8       N        0.00000    0.61930    0.00000    1.000
    O13      O        0.46420    0.58270    0.55890    1.000
    O14      O        0.58130    0.58440    0.63510    1.000
    O15      O        0.85180    0.63450    0.52930    1.000
    C73      C        0.50330    0.75470    0.96170    1.000
    H37      H        0.50610    0.70980    0.93070    1.000
    C74      C        0.50520    0.83100    0.93530    1.000
    C75      C        0.51990    0.85520    0.86660    1.000
    C76      C        0.52510    0.93370    0.84320    1.000
    C77      C        0.53860    0.96210    0.77200    1.000
    H38      H        0.54640    0.93050    0.73140    1.000
    C78      C        0.52050    0.79360    0.80180    1.000
    C79      C        0.46300    0.76300    0.72850    1.000
    H39      H        0.41940    0.78310    0.71460    1.000
    C80      C        0.46270    0.70350    0.67080    1.000
    H40      H        0.41990    0.68370    0.62090    1.000
    C81      C        0.52530    0.67350    0.68670    1.000
    C82      C        0.58230    0.70150    0.75830    1.000
    H41      H        0.62530    0.67950    0.77230    1.000
    C83      C        0.58390    0.76340    0.81710    1.000
    H42      H        0.62700    0.78380    0.86570    1.000
    C84      C        0.52280    0.60750    0.62250    1.000
    C85      C        0.87960    0.57490    0.52650    1.000
    C86      C        0.96810    0.64080    0.50580    1.000
    H43      H        0.94690    0.68770    0.50780    1.000
    C87      C        0.94360    0.57140    0.51290    1.000
    O16      O        0.53580    0.58270    0.44110    1.000
    O17      O        0.41870    0.58440    0.36490    1.000
    O18      O        0.14820    0.63450    0.47070    1.000
    C88      C        0.49670    0.75470    0.03830    1.000
    H44      H        0.49390    0.70980    0.06930    1.000
    C89      C        0.49480    0.83100    0.06470    1.000
    C90      C        0.48010    0.85520    0.13340    1.000
    C91      C        0.47490    0.93370    0.15680    1.000
    C92      C        0.46140    0.96210    0.22800    1.000
    H45      H        0.45360    0.93050    0.26860    1.000
    C93      C        0.47950    0.79360    0.19820    1.000
    C94      C        0.53700    0.76300    0.27150    1.000
    H46      H        0.58060    0.78310    0.28540    1.000
    C95      C        0.53730    0.70350    0.32920    1.000
    H47      H        0.58010    0.68370    0.37910    1.000
    C96      C        0.47470    0.67350    0.31330    1.000
    C97      C        0.41770    0.70150    0.24170    1.000
    H48      H        0.37470    0.67950    0.22770    1.000
    C98      C        0.41610    0.76340    0.18290    1.000
    H49      H        0.37300    0.78380    0.13430    1.000
    C99      C        0.47720    0.60750    0.37750    1.000
    C100     C        0.12040    0.57490    0.47350    1.000
    C101     C        0.03190    0.64080    0.49420    1.000
    H50      H        0.05310    0.68770    0.49220    1.000
    C102     C        0.05640    0.57140    0.48710    1.000
    O19      O        0.53580    0.41730    0.44110    1.000
    O20      O        0.41870    0.41560    0.36490    1.000
    O21      O        0.14820    0.36550    0.47070    1.000
    C103     C        0.49670    0.24530    0.03830    1.000
    H51      H        0.49390    0.29020    0.06930    1.000
    C104     C        0.49480    0.16900    0.06470    1.000
    C105     C        0.48010    0.14480    0.13340    1.000
    C106     C        0.47490    0.06630    0.15680    1.000
    C107     C        0.46140    0.03790    0.22800    1.000
    H52      H        0.45360    0.06950    0.26860    1.000
    C108     C        0.47950    0.20640    0.19820    1.000
    C109     C        0.53700    0.23700    0.27150    1.000
    H53      H        0.58060    0.21690    0.28540    1.000
    C110     C        0.53730    0.29650    0.32920    1.000
    H54      H        0.58010    0.31630    0.37910    1.000
    C111     C        0.47470    0.32650    0.31330    1.000
    C112     C        0.41770    0.29850    0.24170    1.000
    H55      H        0.37470    0.32050    0.22770    1.000
    C113     C        0.41610    0.23660    0.18290    1.000
    H56      H        0.37300    0.21620    0.13430    1.000
    C114     C        0.47720    0.39250    0.37750    1.000
    C115     C        0.12040    0.42510    0.47350    1.000
    C116     C        0.03190    0.35920    0.49420    1.000
    H57      H        0.05310    0.31230    0.49220    1.000
    C117     C        0.05640    0.42860    0.48710    1.000
    O22      O        0.46420    0.41730    0.55890    1.000
    O23      O        0.58130    0.41560    0.63510    1.000
    O24      O        0.85180    0.36550    0.52930    1.000
    C118     C        0.50330    0.24530    0.96170    1.000
    H58      H        0.50610    0.29020    0.93070    1.000
    C119     C        0.50520    0.16900    0.93530    1.000
    C120     C        0.51990    0.14480    0.86660    1.000
    C121     C        0.52510    0.06630    0.84320    1.000
    C122     C        0.53860    0.03790    0.77200    1.000
    H59      H        0.54640    0.06950    0.73140    1.000
    C123     C        0.52050    0.20640    0.80180    1.000
    C124     C        0.46300    0.23700    0.72850    1.000
    H60      H        0.41940    0.21690    0.71460    1.000
    C125     C        0.46270    0.29650    0.67080    1.000
    H61      H        0.41990    0.31630    0.62090    1.000
    C126     C        0.52530    0.32650    0.68670    1.000
    C127     C        0.58230    0.29850    0.75830    1.000
    H62      H        0.62530    0.32050    0.77230    1.000
    C128     C        0.58390    0.23660    0.81710    1.000
    H63      H        0.62700    0.21620    0.86570    1.000
    C129     C        0.52280    0.39250    0.62250    1.000
    C130     C        0.87960    0.42510    0.52650    1.000
    C131     C        0.96810    0.35920    0.50580    1.000
    H64      H        0.94690    0.31230    0.50780    1.000
    C132     C        0.94360    0.42860    0.51290    1.000
    Zn3      Zn       0.57820    0.50000    0.54794    1.000
    N9       N        0.67220    0.50000    0.55240    1.000
    N10      N        0.85630    0.50000    0.53620    1.000
    C133     C        0.73320    0.50000    0.62780    1.000
    H65      H        0.73590    0.50000    0.68690    1.000
    C134     C        0.80080    0.50000    0.62900    1.000
    H66      H        0.84450    0.50000    0.68650    1.000
    C135     C        0.79610    0.50000    0.54680    1.000
    C136     C        0.73020    0.50000    0.46270    1.000
    H67      H        0.72770    0.50000    0.40380    1.000
    C137     C        0.66410    0.50000    0.46380    1.000
    H68      H        0.61960    0.50000    0.40750    1.000
    C138     C        0.96770    0.50000    0.50380    1.000
    Zn4      Zn       0.42180    0.50000    0.45206    1.000
    N11      N        0.32780    0.50000    0.44760    1.000
    N12      N        0.14370    0.50000    0.46380    1.000
    C139     C        0.26680    0.50000    0.37220    1.000
    H69      H        0.26410    0.50000    0.31310    1.000
    C140     C        0.19920    0.50000    0.37100    1.000
    H70      H        0.15550    0.50000    0.31350    1.000
    C141     C        0.20390    0.50000    0.45320    1.000
    C142     C        0.26980    0.50000    0.53730    1.000
    H71      H        0.27230    0.50000    0.59620    1.000
    C143     C        0.33590    0.50000    0.53620    1.000
    H72      H        0.38040    0.50000    0.59250    1.000
    C144     C        0.03230    0.50000    0.49620    1.000
    Mn2      Mn       0.50000    0.00000    0.00000    1.000
    N13      N        0.51790    0.00000    0.89140    1.000
    N14      N        0.48210    0.00000    0.10860    1.000
    N15      N        0.50000    0.88070    0.00000    1.000
    N16      N        0.50000    0.11930    0.00000    1.000
