# CIF file generated by openbabel 3.1.0, see https://openbabel.org
data_I
_chemical_name_common 'image0'
_cell_length_a 20.674
_cell_length_b 9.956
_cell_length_c 23.694
_cell_angle_alpha 90
_cell_angle_beta 101.154
_cell_angle_gamma 90
_space_group_name_H-M_alt 'P 1'
_space_group_name_Hall 'P 1'
loop_
    _symmetry_equiv_pos_as_xyz
    x,y,z
loop_
    _atom_site_label
    _atom_site_type_symbol
    _atom_site_fract_x
    _atom_site_fract_y
    _atom_site_fract_z
    _atom_site_occupancy
    V1       V        0.77857    0.09001    0.72247    1.000
    V2       V        0.67397    0.09421    0.82721    1.000
    V3       V        0.56010    0.42283    0.93582    1.000
    P1       P        0.60686    0.12820    0.93943    1.000
    P2       P        0.68951    0.38410    0.87628    1.000
    P3       P        0.78557    0.87470    0.82501    1.000
    P4       P        0.44246    0.31420    0.99566    1.000
    O1       O        0.73460    0.94590    0.85450    1.000
    O2       O        0.74260    0.16340    0.78740    1.000
    O3       O        0.63980    0.04830    0.89800    1.000
    O4       O        0.65140    0.28950    0.82980    1.000
    O5       O        0.64200    0.46270    0.90600    1.000
    O6       O        0.51480    0.34130    0.99560    1.000
    O7       O        0.43400    0.21310    0.04150    1.000
    O8       O        0.40810    0.25240    0.93610    1.000
    O9       O        0.59460    0.55600    0.99660    1.000
    O10      O        0.56510    0.23990    0.90860    1.000
    O11      O        0.73850    0.29870    0.91820    1.000
    O12      O        0.65680    0.18540    0.99030    1.000
    O13      O        0.56120    0.03310    0.96690    1.000
    O14      O        0.72530    0.22280    0.67130    1.000
    O15      O        0.76870    0.98580    0.65000    1.000
    O16      O        0.77600    0.91580    0.76120    1.000
    O17      O        0.85480    0.91070    0.85620    1.000
    O18      O        0.72190    0.42710    0.02400    1.000
    H1       H        0.68730    0.50190    0.01370    1.000
    H2       H        0.73310    0.24850    0.78160    1.000
    H3       H        0.38680    0.31230    0.90900    1.000
    V4       V        0.27857    0.59001    0.72247    1.000
    V5       V        0.17397    0.59421    0.82721    1.000
    V6       V        0.06010    0.92283    0.93582    1.000
    P5       P        0.10686    0.62820    0.93943    1.000
    P6       P        0.18951    0.88410    0.87628    1.000
    P7       P        0.28557    0.37470    0.82501    1.000
    P8       P        0.94246    0.81420    0.99566    1.000
    O19      O        0.23460    0.44590    0.85450    1.000
    O20      O        0.24260    0.66340    0.78740    1.000
    O21      O        0.13980    0.54830    0.89800    1.000
    O22      O        0.15140    0.78950    0.82980    1.000
    O23      O        0.14200    0.96270    0.90600    1.000
    O24      O        0.01480    0.84130    0.99560    1.000
    O25      O        0.93400    0.71310    0.04150    1.000
    O26      O        0.90810    0.75240    0.93610    1.000
    O27      O        0.09460    0.05600    0.99660    1.000
    O28      O        0.06510    0.73990    0.90860    1.000
    O29      O        0.23850    0.79870    0.91820    1.000
    O30      O        0.15680    0.68540    0.99030    1.000
    O31      O        0.06120    0.53310    0.96690    1.000
    O32      O        0.22530    0.72280    0.67130    1.000
    O33      O        0.26870    0.48580    0.65000    1.000
    O34      O        0.27600    0.41580    0.76120    1.000
    O35      O        0.35480    0.41070    0.85620    1.000
    O36      O        0.22190    0.92710    0.02400    1.000
    H4       H        0.18730    0.00190    0.01370    1.000
    H5       H        0.23310    0.74850    0.78160    1.000
    H6       H        0.88680    0.81230    0.90900    1.000
    V7       V        0.22143    0.09001    0.77753    1.000
    V8       V        0.32603    0.09421    0.67279    1.000
    V9       V        0.43990    0.42283    0.56418    1.000
    P9       P        0.39314    0.12820    0.56057    1.000
    P10      P        0.31049    0.38410    0.62372    1.000
    P11      P        0.21443    0.87470    0.67499    1.000
    P12      P        0.55754    0.31420    0.50434    1.000
    O37      O        0.26540    0.94590    0.64550    1.000
    O38      O        0.25740    0.16340    0.71260    1.000
    O39      O        0.36020    0.04830    0.60200    1.000
    O40      O        0.34860    0.28950    0.67020    1.000
    O41      O        0.35800    0.46270    0.59400    1.000
    O42      O        0.48520    0.34130    0.50440    1.000
    O43      O        0.56600    0.21310    0.45850    1.000
    O44      O        0.59190    0.25240    0.56390    1.000
    O45      O        0.40540    0.55600    0.50340    1.000
    O46      O        0.43490    0.23990    0.59140    1.000
    O47      O        0.26150    0.29870    0.58180    1.000
    O48      O        0.34320    0.18540    0.50970    1.000
    O49      O        0.43880    0.03310    0.53310    1.000
    O50      O        0.27470    0.22280    0.82870    1.000
    O51      O        0.23130    0.98580    0.85000    1.000
    O52      O        0.22400    0.91580    0.73880    1.000
    O53      O        0.14520    0.91070    0.64380    1.000
    O54      O        0.27810    0.42710    0.47600    1.000
    H7       H        0.31270    0.50190    0.48630    1.000
    H8       H        0.26690    0.24850    0.71840    1.000
    H9       H        0.61320    0.31230    0.59100    1.000
    V10      V        0.72143    0.59001    0.77753    1.000
    V11      V        0.82603    0.59421    0.67279    1.000
    V12      V        0.93990    0.92283    0.56418    1.000
    P13      P        0.89314    0.62820    0.56057    1.000
    P14      P        0.81049    0.88410    0.62372    1.000
    P15      P        0.71443    0.37470    0.67499    1.000
    P16      P        0.05754    0.81420    0.50434    1.000
    O55      O        0.76540    0.44590    0.64550    1.000
    O56      O        0.75740    0.66340    0.71260    1.000
    O57      O        0.86020    0.54830    0.60200    1.000
    O58      O        0.84860    0.78950    0.67020    1.000
    O59      O        0.85800    0.96270    0.59400    1.000
    O60      O        0.98520    0.84130    0.50440    1.000
    O61      O        0.06600    0.71310    0.45850    1.000
    O62      O        0.09190    0.75240    0.56390    1.000
    O63      O        0.90540    0.05600    0.50340    1.000
    O64      O        0.93490    0.73990    0.59140    1.000
    O65      O        0.76150    0.79870    0.58180    1.000
    O66      O        0.84320    0.68540    0.50970    1.000
    O67      O        0.93880    0.53310    0.53310    1.000
    O68      O        0.77470    0.72280    0.82870    1.000
    O69      O        0.73130    0.48580    0.85000    1.000
    O70      O        0.72400    0.41580    0.73880    1.000
    O71      O        0.64520    0.41070    0.64380    1.000
    O72      O        0.77810    0.92710    0.47600    1.000
    H10      H        0.81270    0.00190    0.48630    1.000
    H11      H        0.76690    0.74850    0.71840    1.000
    H12      H        0.11320    0.81230    0.59100    1.000
    V13      V        0.22143    0.90999    0.27753    1.000
    V14      V        0.32603    0.90579    0.17279    1.000
    V15      V        0.43990    0.57717    0.06418    1.000
    P17      P        0.39314    0.87180    0.06057    1.000
    P18      P        0.31049    0.61590    0.12372    1.000
    P19      P        0.21443    0.12530    0.17499    1.000
    P20      P        0.55754    0.68580    0.00434    1.000
    O73      O        0.26540    0.05410    0.14550    1.000
    O74      O        0.25740    0.83660    0.21260    1.000
    O75      O        0.36020    0.95170    0.10200    1.000
    O76      O        0.34860    0.71050    0.17020    1.000
    O77      O        0.35800    0.53730    0.09400    1.000
    O78      O        0.48520    0.65870    0.00440    1.000
    O79      O        0.56600    0.78690    0.95850    1.000
    O80      O        0.59190    0.74760    0.06390    1.000
    O81      O        0.40540    0.44400    0.00340    1.000
    O82      O        0.43490    0.76010    0.09140    1.000
    O83      O        0.26150    0.70130    0.08180    1.000
    O84      O        0.34320    0.81460    0.00970    1.000
    O85      O        0.43880    0.96690    0.03310    1.000
    O86      O        0.27470    0.77720    0.32870    1.000
    O87      O        0.23130    0.01420    0.35000    1.000
    O88      O        0.22400    0.08420    0.23880    1.000
    O89      O        0.14520    0.08930    0.14380    1.000
    O90      O        0.27810    0.57290    0.97600    1.000
    H13      H        0.31270    0.49810    0.98630    1.000
    H14      H        0.26690    0.75150    0.21840    1.000
    H15      H        0.61320    0.68770    0.09100    1.000
    V16      V        0.72143    0.40999    0.27753    1.000
    V17      V        0.82603    0.40579    0.17279    1.000
    V18      V        0.93990    0.07717    0.06418    1.000
    P21      P        0.89314    0.37180    0.06057    1.000
    P22      P        0.81049    0.11590    0.12372    1.000
    P23      P        0.71443    0.62530    0.17499    1.000
    P24      P        0.05754    0.18580    0.00434    1.000
    O91      O        0.76540    0.55410    0.14550    1.000
    O92      O        0.75740    0.33660    0.21260    1.000
    O93      O        0.86020    0.45170    0.10200    1.000
    O94      O        0.84860    0.21050    0.17020    1.000
    O95      O        0.85800    0.03730    0.09400    1.000
    O96      O        0.98520    0.15870    0.00440    1.000
    O97      O        0.06600    0.28690    0.95850    1.000
    O98      O        0.09190    0.24760    0.06390    1.000
    O99      O        0.90540    0.94400    0.00340    1.000
    O100     O        0.93490    0.26010    0.09140    1.000
    O101     O        0.76150    0.20130    0.08180    1.000
    O102     O        0.84320    0.31460    0.00970    1.000
    O103     O        0.93880    0.46690    0.03310    1.000
    O104     O        0.77470    0.27720    0.32870    1.000
    O105     O        0.73130    0.51420    0.35000    1.000
    O106     O        0.72400    0.58420    0.23880    1.000
    O107     O        0.64520    0.58930    0.14380    1.000
    O108     O        0.77810    0.07290    0.97600    1.000
    H16      H        0.81270    0.99810    0.98630    1.000
    H17      H        0.76690    0.25150    0.21840    1.000
    H18      H        0.11320    0.18770    0.09100    1.000
    V19      V        0.77857    0.90999    0.22247    1.000
    V20      V        0.67397    0.90579    0.32721    1.000
    V21      V        0.56010    0.57717    0.43582    1.000
    P25      P        0.60686    0.87180    0.43943    1.000
    P26      P        0.68951    0.61590    0.37628    1.000
    P27      P        0.78557    0.12530    0.32501    1.000
    P28      P        0.44246    0.68580    0.49566    1.000
    O109     O        0.73460    0.05410    0.35450    1.000
    O110     O        0.74260    0.83660    0.28740    1.000
    O111     O        0.63980    0.95170    0.39800    1.000
    O112     O        0.65140    0.71050    0.32980    1.000
    O113     O        0.64200    0.53730    0.40600    1.000
    O114     O        0.51480    0.65870    0.49560    1.000
    O115     O        0.43400    0.78690    0.54150    1.000
    O116     O        0.40810    0.74760    0.43610    1.000
    O117     O        0.59460    0.44400    0.49660    1.000
    O118     O        0.56510    0.76010    0.40860    1.000
    O119     O        0.73850    0.70130    0.41820    1.000
    O120     O        0.65680    0.81460    0.49030    1.000
    O121     O        0.56120    0.96690    0.46690    1.000
    O122     O        0.72530    0.77720    0.17130    1.000
    O123     O        0.76870    0.01420    0.15000    1.000
    O124     O        0.77600    0.08420    0.26120    1.000
    O125     O        0.85480    0.08930    0.35620    1.000
    O126     O        0.72190    0.57290    0.52400    1.000
    H19      H        0.68730    0.49810    0.51370    1.000
    H20      H        0.73310    0.75150    0.28160    1.000
    H21      H        0.38680    0.68770    0.40900    1.000
    V22      V        0.27857    0.40999    0.22247    1.000
    V23      V        0.17397    0.40579    0.32721    1.000
    V24      V        0.06010    0.07717    0.43582    1.000
    P29      P        0.10686    0.37180    0.43943    1.000
    P30      P        0.18951    0.11590    0.37628    1.000
    P31      P        0.28557    0.62530    0.32501    1.000
    P32      P        0.94246    0.18580    0.49566    1.000
    O127     O        0.23460    0.55410    0.35450    1.000
    O128     O        0.24260    0.33660    0.28740    1.000
    O129     O        0.13980    0.45170    0.39800    1.000
    O130     O        0.15140    0.21050    0.32980    1.000
    O131     O        0.14200    0.03730    0.40600    1.000
    O132     O        0.01480    0.15870    0.49560    1.000
    O133     O        0.93400    0.28690    0.54150    1.000
    O134     O        0.90810    0.24760    0.43610    1.000
    O135     O        0.09460    0.94400    0.49660    1.000
    O136     O        0.06510    0.26010    0.40860    1.000
    O137     O        0.23850    0.20130    0.41820    1.000
    O138     O        0.15680    0.31460    0.49030    1.000
    O139     O        0.06120    0.46690    0.46690    1.000
    O140     O        0.22530    0.27720    0.17130    1.000
    O141     O        0.26870    0.51420    0.15000    1.000
    O142     O        0.27600    0.58420    0.26120    1.000
    O143     O        0.35480    0.58930    0.35620    1.000
    O144     O        0.22190    0.07290    0.52400    1.000
    H22      H        0.18730    0.99810    0.51370    1.000
    H23      H        0.23310    0.25150    0.28160    1.000
    H24      H        0.88680    0.18770    0.40900    1.000
    V25      V        0.75000    0.25000    0.00000    1.000
    V26      V        0.25000    0.25000    0.50000    1.000
    V27      V        0.25000    0.75000    0.00000    1.000
    V28      V        0.75000    0.75000    0.50000    1.000
