# CIF file generated by openbabel 3.1.0, see https://openbabel.org
data_I
_chemical_name_common 'image0'
_cell_length_a 16.2499
_cell_length_b 8.7451
_cell_length_c 20.7317
_cell_angle_alpha 90
_cell_angle_beta 95.213
_cell_angle_gamma 90
_space_group_name_H-M_alt 'P 1'
_space_group_name_Hall 'P 1'
loop_
    _symmetry_equiv_pos_as_xyz
    x,y,z
loop_
    _atom_site_label
    _atom_site_type_symbol
    _atom_site_fract_x
    _atom_site_fract_y
    _atom_site_fract_z
    _atom_site_occupancy
    Eu1      Eu       0.24212    0.22074    0.71197    1.000
    O1       O        0.12400    0.35710    0.66150    1.000
    O2       O        0.37090    0.31990    0.74820    1.000
    O3       O        0.17950    0.53620    0.84130    1.000
    O4       O        0.17860    0.29890    0.80310    1.000
    O5       O        0.36420    0.54230    0.79890    1.000
    O6       O        0.21090    0.52970    0.70450    1.000
    N1       N        0.98450    0.93450    0.49940    1.000
    N2       N        0.75520    0.46020    0.83990    1.000
    N3       N        0.78760    0.36340    0.81220    1.000
    C1       C        0.15070    0.49230    0.66530    1.000
    C2       C        0.10980    0.60950    0.61990    1.000
    C3       C        0.14730    0.74890    0.60990    1.000
    H1       H        0.19930    0.76900    0.63080    1.000
    C4       C        0.10950    0.85730    0.57020    1.000
    H2       H        0.13510    0.95050    0.56410    1.000
    C5       C        0.03140    0.82570    0.53870    1.000
    C6       C        0.99420    0.68590    0.54630    1.000
    H3       H        0.94300    0.66540    0.52430    1.000
    C7       C        0.03270    0.57650    0.58620    1.000
    H4       H        0.00800    0.48180    0.59080    1.000
    C8       C        0.40290    0.42960    0.78030    1.000
    C9       C        0.49490    0.42670    0.79680    1.000
    C10      C        0.53360    0.53780    0.83620    1.000
    H5       H        0.50200    0.61360    0.85350    1.000
    C11      C        0.61740    0.53810    0.85010    1.000
    H6       H        0.64260    0.61170    0.87760    1.000
    C12      C        0.66310    0.43080    0.82350    1.000
    C13      C        0.62710    0.31430    0.78530    1.000
    H7       H        0.65940    0.23910    0.76840    1.000
    C14      C        0.54090    0.31290    0.77290    1.000
    H8       H        0.51500    0.23460    0.74840    1.000
    C15      C        0.14430    0.41460    0.82410    1.000
    C16      C        0.05200    0.40620    0.82730    1.000
    C17      C        0.00960    0.51600    0.85870    1.000
    H9       H        0.03850    0.59440    0.88100    1.000
    C18      C        0.92310    0.51010    0.85730    1.000
    H10      H        0.89470    0.58310    0.87920    1.000
    C19      C        0.88120    0.39590    0.82340    1.000
    C20      C        0.92300    0.28550    0.79350    1.000
    H11      H        0.89400    0.20580    0.77220    1.000
    C21      C        0.00790    0.29060    0.79460    1.000
    H12      H        0.03560    0.21580    0.77320    1.000
    Eu2      Eu       0.25788    0.72074    0.78803    1.000
    O7       O        0.37600    0.85710    0.83850    1.000
    O8       O        0.12910    0.81990    0.75180    1.000
    O9       O        0.32050    0.03620    0.65870    1.000
    O10      O        0.32140    0.79890    0.69690    1.000
    O11      O        0.13580    0.04230    0.70110    1.000
    O12      O        0.28910    0.02970    0.79550    1.000
    N4       N        0.51550    0.43450    0.00060    1.000
    N5       N        0.74480    0.96020    0.66010    1.000
    N6       N        0.71240    0.86340    0.68780    1.000
    C22      C        0.34930    0.99230    0.83470    1.000
    C23      C        0.39020    0.10950    0.88010    1.000
    C24      C        0.35270    0.24890    0.89010    1.000
    H13      H        0.30070    0.26900    0.86920    1.000
    C25      C        0.39050    0.35730    0.92980    1.000
    H14      H        0.36490    0.45050    0.93590    1.000
    C26      C        0.46860    0.32570    0.96130    1.000
    C27      C        0.50580    0.18590    0.95370    1.000
    H15      H        0.55700    0.16540    0.97570    1.000
    C28      C        0.46730    0.07650    0.91380    1.000
    H16      H        0.49200    0.98180    0.90920    1.000
    C29      C        0.09710    0.92960    0.71970    1.000
    C30      C        0.00510    0.92670    0.70320    1.000
    C31      C        0.96640    0.03780    0.66380    1.000
    H17      H        0.99800    0.11360    0.64650    1.000
    C32      C        0.88260    0.03810    0.64990    1.000
    H18      H        0.85740    0.11170    0.62240    1.000
    C33      C        0.83690    0.93080    0.67650    1.000
    C34      C        0.87290    0.81430    0.71470    1.000
    H19      H        0.84060    0.73910    0.73160    1.000
    C35      C        0.95910    0.81290    0.72710    1.000
    H20      H        0.98500    0.73460    0.75160    1.000
    C36      C        0.35570    0.91460    0.67590    1.000
    C37      C        0.44800    0.90620    0.67270    1.000
    C38      C        0.49040    0.01600    0.64130    1.000
    H21      H        0.46150    0.09440    0.61900    1.000
    C39      C        0.57690    0.01010    0.64270    1.000
    H22      H        0.60530    0.08310    0.62080    1.000
    C40      C        0.61880    0.89590    0.67660    1.000
    C41      C        0.57700    0.78550    0.70650    1.000
    H23      H        0.60600    0.70580    0.72780    1.000
    C42      C        0.49210    0.79060    0.70540    1.000
    H24      H        0.46440    0.71580    0.72680    1.000
    Eu3      Eu       0.75788    0.77926    0.28803    1.000
    O13      O        0.87600    0.64290    0.33850    1.000
    O14      O        0.62910    0.68010    0.25180    1.000
    O15      O        0.82050    0.46380    0.15870    1.000
    O16      O        0.82140    0.70110    0.19690    1.000
    O17      O        0.63580    0.45770    0.20110    1.000
    O18      O        0.78910    0.47030    0.29550    1.000
    N7       N        0.01550    0.06550    0.50060    1.000
    N8       N        0.24480    0.53980    0.16010    1.000
    N9       N        0.21240    0.63660    0.18780    1.000
    C43      C        0.84930    0.50770    0.33470    1.000
    C44      C        0.89020    0.39050    0.38010    1.000
    C45      C        0.85270    0.25110    0.39010    1.000
    H25      H        0.80070    0.23100    0.36920    1.000
    C46      C        0.89050    0.14270    0.42980    1.000
    H26      H        0.86490    0.04950    0.43590    1.000
    C47      C        0.96860    0.17430    0.46130    1.000
    C48      C        0.00580    0.31410    0.45370    1.000
    H27      H        0.05700    0.33460    0.47570    1.000
    C49      C        0.96730    0.42350    0.41380    1.000
    H28      H        0.99200    0.51820    0.40920    1.000
    C50      C        0.59710    0.57040    0.21970    1.000
    C51      C        0.50510    0.57330    0.20320    1.000
    C52      C        0.46640    0.46220    0.16380    1.000
    H29      H        0.49800    0.38640    0.14650    1.000
    C53      C        0.38260    0.46190    0.14990    1.000
    H30      H        0.35740    0.38830    0.12240    1.000
    C54      C        0.33690    0.56920    0.17650    1.000
    C55      C        0.37290    0.68570    0.21470    1.000
    H31      H        0.34060    0.76090    0.23160    1.000
    C56      C        0.45910    0.68710    0.22710    1.000
    H32      H        0.48500    0.76540    0.25160    1.000
    C57      C        0.85570    0.58540    0.17590    1.000
    C58      C        0.94800    0.59380    0.17270    1.000
    C59      C        0.99040    0.48400    0.14130    1.000
    H33      H        0.96150    0.40560    0.11900    1.000
    C60      C        0.07690    0.48990    0.14270    1.000
    H34      H        0.10530    0.41690    0.12080    1.000
    C61      C        0.11880    0.60410    0.17660    1.000
    C62      C        0.07700    0.71450    0.20650    1.000
    H35      H        0.10600    0.79420    0.22780    1.000
    C63      C        0.99210    0.70940    0.20540    1.000
    H36      H        0.96440    0.78420    0.22680    1.000
    Eu4      Eu       0.74212    0.27926    0.21197    1.000
    O19      O        0.62400    0.14290    0.16150    1.000
    O20      O        0.87090    0.18010    0.24820    1.000
    O21      O        0.67950    0.96380    0.34130    1.000
    O22      O        0.67860    0.20110    0.30310    1.000
    O23      O        0.86420    0.95770    0.29890    1.000
    O24      O        0.71090    0.97030    0.20450    1.000
    N10      N        0.48450    0.56550    0.99940    1.000
    N11      N        0.25520    0.03980    0.33990    1.000
    N12      N        0.28760    0.13660    0.31220    1.000
    C64      C        0.65070    0.00770    0.16530    1.000
    C65      C        0.60980    0.89050    0.11990    1.000
    C66      C        0.64730    0.75110    0.10990    1.000
    H37      H        0.69930    0.73100    0.13080    1.000
    C67      C        0.60950    0.64270    0.07020    1.000
    H38      H        0.63510    0.54950    0.06410    1.000
    C68      C        0.53140    0.67430    0.03870    1.000
    C69      C        0.49420    0.81410    0.04630    1.000
    H39      H        0.44300    0.83460    0.02430    1.000
    C70      C        0.53270    0.92350    0.08620    1.000
    H40      H        0.50800    0.01820    0.09080    1.000
    C71      C        0.90290    0.07040    0.28030    1.000
    C72      C        0.99490    0.07330    0.29680    1.000
    C73      C        0.03360    0.96220    0.33620    1.000
    H41      H        0.00200    0.88640    0.35350    1.000
    C74      C        0.11740    0.96190    0.35010    1.000
    H42      H        0.14260    0.88830    0.37760    1.000
    C75      C        0.16310    0.06920    0.32350    1.000
    C76      C        0.12710    0.18570    0.28530    1.000
    H43      H        0.15940    0.26090    0.26840    1.000
    C77      C        0.04090    0.18710    0.27290    1.000
    H44      H        0.01500    0.26540    0.24840    1.000
    C78      C        0.64430    0.08540    0.32410    1.000
    C79      C        0.55200    0.09380    0.32730    1.000
    C80      C        0.50960    0.98400    0.35870    1.000
    H45      H        0.53850    0.90560    0.38100    1.000
    C81      C        0.42310    0.98990    0.35730    1.000
    H46      H        0.39470    0.91690    0.37920    1.000
    C82      C        0.38120    0.10410    0.32340    1.000
    C83      C        0.42300    0.21450    0.29350    1.000
    H47      H        0.39400    0.29420    0.27220    1.000
    C84      C        0.50790    0.20940    0.29460    1.000
    H48      H        0.53560    0.28420    0.27320    1.000
