# CIF file generated by openbabel 3.1.0, see https://openbabel.org
data_I
_chemical_name_common 'EZUCOS_clean'
_cell_length_a 25.4627
_cell_length_b 9.8868
_cell_length_c 21.9526
_cell_angle_alpha 90
_cell_angle_beta 130.157
_cell_angle_gamma 90
_space_group_name_H-M_alt 'P 1'
_space_group_name_Hall 'P 1'
loop_
    _symmetry_equiv_pos_as_xyz
    x,y,z
loop_
    _atom_site_label
    _atom_site_type_symbol
    _atom_site_fract_x
    _atom_site_fract_y
    _atom_site_fract_z
    _atom_site_occupancy
    Cd1      Cd       0.73201    0.41064    0.06164    1.000
    H2       H        0.76200    0.32520    0.22620    1.000
    H3       H        0.72930    0.36420    0.30010    1.000
    H4       H        0.59980    0.64910    0.14040    1.000
    H5       H        0.64000    0.60740    0.07560    1.000
    H6       H        0.49380    0.81580    0.17920    1.000
    H7       H        0.37900    0.79150    0.07160    1.000
    H8       H        0.40070    0.40850    0.05610    1.000
    H9       H        0.51510    0.41600    0.16240    1.000
    H10      H        0.60360    0.24470    0.33860    1.000
    H11      H        0.62090    0.26740    0.28250    1.000
    H12      H        0.70900    0.38000    0.44100    1.000
    C13      C        0.72900    0.39110    0.20890    1.000
    C14      C        0.70940    0.41340    0.25370    1.000
    C15      C        0.65910    0.51130    0.22860    1.000
    C16      C        0.63310    0.58300    0.15950    1.000
    C17      C        0.65690    0.55570    0.12030    1.000
    C18      C        0.51950    0.61890    0.18220    1.000
    C19      C        0.47650    0.73210    0.15460    1.000
    C20      C        0.40710    0.71580    0.08940    1.000
    C21      C        0.42020    0.49150    0.08070    1.000
    C22      C        0.48900    0.49470    0.14440    1.000
    C23      C        0.72230    0.61800    0.40490    1.000
    C24      C        0.67740    0.50150    0.35210    1.000
    C25      C        0.67810    0.38470    0.38140    1.000
    C26      C        0.64080    0.25810    0.33770    1.000
    C27      C        0.68740    0.13520    0.37350    1.000
    N28      N        0.70340    0.45830    0.14210    1.000
    N29      N        0.63360    0.52750    0.26830    1.000
    N30      N        0.58850    0.63680    0.24440    1.000
    N31      N        0.37830    0.60120    0.05100    1.000
    O32      O        0.71736    0.72310    0.36920    1.000
    O33      O        0.76207    0.60440    0.47960    1.000
    O34      O        0.66130    0.02020    0.34720    1.000
    O35      O        0.75122    0.15180    0.42950    1.000
    H36      H        0.39113    0.73543    0.22431    1.000
    Cd37     Cd       0.23201    0.91064    0.06164    1.000
    H38      H        0.26200    0.82520    0.22620    1.000
    H39      H        0.22930    0.86420    0.30010    1.000
    H40      H        0.09980    0.14910    0.14040    1.000
    H41      H        0.14000    0.10740    0.07560    1.000
    H42      H        0.99380    0.31580    0.17920    1.000
    H43      H        0.87900    0.29150    0.07160    1.000
    H44      H        0.90070    0.90850    0.05610    1.000
    H45      H        0.01510    0.91600    0.16240    1.000
    H46      H        0.10360    0.74470    0.33860    1.000
    H47      H        0.12090    0.76740    0.28250    1.000
    H48      H        0.20900    0.88000    0.44100    1.000
    C49      C        0.22900    0.89110    0.20890    1.000
    C50      C        0.20940    0.91340    0.25370    1.000
    C51      C        0.15910    0.01130    0.22860    1.000
    C52      C        0.13310    0.08300    0.15950    1.000
    C53      C        0.15690    0.05570    0.12030    1.000
    C54      C        0.01950    0.11890    0.18220    1.000
    C55      C        0.97650    0.23210    0.15460    1.000
    C56      C        0.90710    0.21580    0.08940    1.000
    C57      C        0.92020    0.99150    0.08070    1.000
    C58      C        0.98900    0.99470    0.14440    1.000
    C59      C        0.22230    0.11800    0.40490    1.000
    C60      C        0.17740    0.00150    0.35210    1.000
    C61      C        0.17810    0.88470    0.38140    1.000
    C62      C        0.14080    0.75810    0.33770    1.000
    C63      C        0.18740    0.63520    0.37350    1.000
    N64      N        0.20340    0.95830    0.14210    1.000
    N65      N        0.13360    0.02750    0.26830    1.000
    N66      N        0.08850    0.13680    0.24440    1.000
    N67      N        0.87830    0.10120    0.05100    1.000
    O68      O        0.21736    0.22310    0.36920    1.000
    O69      O        0.26207    0.10440    0.47960    1.000
    O70      O        0.16130    0.52020    0.34720    1.000
    O71      O        0.25122    0.65180    0.42950    1.000
    H72      H        0.89113    0.23543    0.22431    1.000
    Cd73     Cd       0.26799    0.41064    0.43836    1.000
    H74      H        0.23800    0.32520    0.27380    1.000
    H75      H        0.27070    0.36420    0.19990    1.000
    H76      H        0.40020    0.64910    0.35960    1.000
    H77      H        0.36000    0.60740    0.42440    1.000
    H78      H        0.50620    0.81580    0.32080    1.000
    H79      H        0.62100    0.79150    0.42840    1.000
    H80      H        0.59930    0.40850    0.44390    1.000
    H81      H        0.48490    0.41600    0.33760    1.000
    H82      H        0.39640    0.24470    0.16140    1.000
    H83      H        0.37910    0.26740    0.21750    1.000
    H84      H        0.29100    0.38000    0.05900    1.000
    C85      C        0.27100    0.39110    0.29110    1.000
    C86      C        0.29060    0.41340    0.24630    1.000
    C87      C        0.34090    0.51130    0.27140    1.000
    C88      C        0.36690    0.58300    0.34050    1.000
    C89      C        0.34310    0.55570    0.37970    1.000
    C90      C        0.48050    0.61890    0.31780    1.000
    C91      C        0.52350    0.73210    0.34540    1.000
    C92      C        0.59290    0.71580    0.41060    1.000
    C93      C        0.57980    0.49150    0.41930    1.000
    C94      C        0.51100    0.49470    0.35560    1.000
    C95      C        0.27770    0.61800    0.09510    1.000
    C96      C        0.32260    0.50150    0.14790    1.000
    C97      C        0.32190    0.38470    0.11860    1.000
    C98      C        0.35920    0.25810    0.16230    1.000
    C99      C        0.31260    0.13520    0.12650    1.000
    N100     N        0.29660    0.45830    0.35790    1.000
    N101     N        0.36640    0.52750    0.23170    1.000
    N102     N        0.41150    0.63680    0.25560    1.000
    N103     N        0.62170    0.60120    0.44900    1.000
    O104     O        0.28264    0.72310    0.13080    1.000
    O105     O        0.23793    0.60440    0.02040    1.000
    O106     O        0.33870    0.02020    0.15280    1.000
    O107     O        0.24878    0.15180    0.07050    1.000
    H108     H        0.60887    0.73543    0.27569    1.000
    Cd109    Cd       0.76799    0.91064    0.43836    1.000
    H110     H        0.73800    0.82520    0.27380    1.000
    H111     H        0.77070    0.86420    0.19990    1.000
    H112     H        0.90020    0.14910    0.35960    1.000
    H113     H        0.86000    0.10740    0.42440    1.000
    H114     H        0.00620    0.31580    0.32080    1.000
    H115     H        0.12100    0.29150    0.42840    1.000
    H116     H        0.09930    0.90850    0.44390    1.000
    H117     H        0.98490    0.91600    0.33760    1.000
    H118     H        0.89640    0.74470    0.16140    1.000
    H119     H        0.87910    0.76740    0.21750    1.000
    H120     H        0.79100    0.88000    0.05900    1.000
    C121     C        0.77100    0.89110    0.29110    1.000
    C122     C        0.79060    0.91340    0.24630    1.000
    C123     C        0.84090    0.01130    0.27140    1.000
    C124     C        0.86690    0.08300    0.34050    1.000
    C125     C        0.84310    0.05570    0.37970    1.000
    C126     C        0.98050    0.11890    0.31780    1.000
    C127     C        0.02350    0.23210    0.34540    1.000
    C128     C        0.09290    0.21580    0.41060    1.000
    C129     C        0.07980    0.99150    0.41930    1.000
    C130     C        0.01100    0.99470    0.35560    1.000
    C131     C        0.77770    0.11800    0.09510    1.000
    C132     C        0.82260    0.00150    0.14790    1.000
    C133     C        0.82190    0.88470    0.11860    1.000
    C134     C        0.85920    0.75810    0.16230    1.000
    C135     C        0.81260    0.63520    0.12650    1.000
    N136     N        0.79660    0.95830    0.35790    1.000
    N137     N        0.86640    0.02750    0.23170    1.000
    N138     N        0.91150    0.13680    0.25560    1.000
    N139     N        0.12170    0.10120    0.44900    1.000
    O140     O        0.78264    0.22310    0.13080    1.000
    O141     O        0.73793    0.10440    0.02040    1.000
    O142     O        0.83870    0.52020    0.15280    1.000
    O143     O        0.74878    0.65180    0.07050    1.000
    H144     H        0.10887    0.23543    0.27569    1.000
    Cd145    Cd       0.26799    0.58936    0.93836    1.000
    H146     H        0.23800    0.67480    0.77380    1.000
    H147     H        0.27070    0.63580    0.69990    1.000
    H148     H        0.40020    0.35090    0.85960    1.000
    H149     H        0.36000    0.39260    0.92440    1.000
    H150     H        0.50620    0.18420    0.82080    1.000
    H151     H        0.62100    0.20850    0.92840    1.000
    H152     H        0.59930    0.59150    0.94390    1.000
    H153     H        0.48490    0.58400    0.83760    1.000
    H154     H        0.39640    0.75530    0.66140    1.000
    H155     H        0.37910    0.73260    0.71750    1.000
    H156     H        0.29100    0.62000    0.55900    1.000
    C157     C        0.27100    0.60890    0.79110    1.000
    C158     C        0.29060    0.58660    0.74630    1.000
    C159     C        0.34090    0.48870    0.77140    1.000
    C160     C        0.36690    0.41700    0.84050    1.000
    C161     C        0.34310    0.44430    0.87970    1.000
    C162     C        0.48050    0.38110    0.81780    1.000
    C163     C        0.52350    0.26790    0.84540    1.000
    C164     C        0.59290    0.28420    0.91060    1.000
    C165     C        0.57980    0.50850    0.91930    1.000
    C166     C        0.51100    0.50530    0.85560    1.000
    C167     C        0.27770    0.38200    0.59510    1.000
    C168     C        0.32260    0.49850    0.64790    1.000
    C169     C        0.32190    0.61530    0.61860    1.000
    C170     C        0.35920    0.74190    0.66230    1.000
    C171     C        0.31260    0.86480    0.62650    1.000
    N172     N        0.29660    0.54170    0.85790    1.000
    N173     N        0.36640    0.47250    0.73170    1.000
    N174     N        0.41150    0.36320    0.75560    1.000
    N175     N        0.62170    0.39880    0.94900    1.000
    O176     O        0.28264    0.27690    0.63080    1.000
    O177     O        0.23793    0.39560    0.52040    1.000
    O178     O        0.33870    0.97980    0.65280    1.000
    O179     O        0.24878    0.84820    0.57050    1.000
    H180     H        0.60887    0.26457    0.77569    1.000
    Cd181    Cd       0.76799    0.08936    0.93836    1.000
    H182     H        0.73800    0.17480    0.77380    1.000
    H183     H        0.77070    0.13580    0.69990    1.000
    H184     H        0.90020    0.85090    0.85960    1.000
    H185     H        0.86000    0.89260    0.92440    1.000
    H186     H        0.00620    0.68420    0.82080    1.000
    H187     H        0.12100    0.70850    0.92840    1.000
    H188     H        0.09930    0.09150    0.94390    1.000
    H189     H        0.98490    0.08400    0.83760    1.000
    H190     H        0.89640    0.25530    0.66140    1.000
    H191     H        0.87910    0.23260    0.71750    1.000
    H192     H        0.79100    0.12000    0.55900    1.000
    C193     C        0.77100    0.10890    0.79110    1.000
    C194     C        0.79060    0.08660    0.74630    1.000
    C195     C        0.84090    0.98870    0.77140    1.000
    C196     C        0.86690    0.91700    0.84050    1.000
    C197     C        0.84310    0.94430    0.87970    1.000
    C198     C        0.98050    0.88110    0.81780    1.000
    C199     C        0.02350    0.76790    0.84540    1.000
    C200     C        0.09290    0.78420    0.91060    1.000
    C201     C        0.07980    0.00850    0.91930    1.000
    C202     C        0.01100    0.00530    0.85560    1.000
    C203     C        0.77770    0.88200    0.59510    1.000
    C204     C        0.82260    0.99850    0.64790    1.000
    C205     C        0.82190    0.11530    0.61860    1.000
    C206     C        0.85920    0.24190    0.66230    1.000
    C207     C        0.81260    0.36480    0.62650    1.000
    N208     N        0.79660    0.04170    0.85790    1.000
    N209     N        0.86640    0.97250    0.73170    1.000
    N210     N        0.91150    0.86320    0.75560    1.000
    N211     N        0.12170    0.89880    0.94900    1.000
    O212     O        0.78264    0.77690    0.63080    1.000
    O213     O        0.73793    0.89560    0.52040    1.000
    O214     O        0.83870    0.47980    0.65280    1.000
    O215     O        0.74878    0.34820    0.57050    1.000
    H216     H        0.10887    0.76457    0.77569    1.000
    Cd217    Cd       0.73201    0.58936    0.56164    1.000
    H218     H        0.76200    0.67480    0.72620    1.000
    H219     H        0.72930    0.63580    0.80010    1.000
    H220     H        0.59980    0.35090    0.64040    1.000
    H221     H        0.64000    0.39260    0.57560    1.000
    H222     H        0.49380    0.18420    0.67920    1.000
    H223     H        0.37900    0.20850    0.57160    1.000
    H224     H        0.40070    0.59150    0.55610    1.000
    H225     H        0.51510    0.58400    0.66240    1.000
    H226     H        0.60360    0.75530    0.83860    1.000
    H227     H        0.62090    0.73260    0.78250    1.000
    H228     H        0.70900    0.62000    0.94100    1.000
    C229     C        0.72900    0.60890    0.70890    1.000
    C230     C        0.70940    0.58660    0.75370    1.000
    C231     C        0.65910    0.48870    0.72860    1.000
    C232     C        0.63310    0.41700    0.65950    1.000
    C233     C        0.65690    0.44430    0.62030    1.000
    C234     C        0.51950    0.38110    0.68220    1.000
    C235     C        0.47650    0.26790    0.65460    1.000
    C236     C        0.40710    0.28420    0.58940    1.000
    C237     C        0.42020    0.50850    0.58070    1.000
    C238     C        0.48900    0.50530    0.64440    1.000
    C239     C        0.72230    0.38200    0.90490    1.000
    C240     C        0.67740    0.49850    0.85210    1.000
    C241     C        0.67810    0.61530    0.88140    1.000
    C242     C        0.64080    0.74190    0.83770    1.000
    C243     C        0.68740    0.86480    0.87350    1.000
    N244     N        0.70340    0.54170    0.64210    1.000
    N245     N        0.63360    0.47250    0.76830    1.000
    N246     N        0.58850    0.36320    0.74440    1.000
    N247     N        0.37830    0.39880    0.55100    1.000
    O248     O        0.71736    0.27690    0.86920    1.000
    O249     O        0.76207    0.39560    0.97960    1.000
    O250     O        0.66130    0.97980    0.84720    1.000
    O251     O        0.75122    0.84820    0.92950    1.000
    H252     H        0.39113    0.26457    0.72431    1.000
    Cd253    Cd       0.23201    0.08936    0.56164    1.000
    H254     H        0.26200    0.17480    0.72620    1.000
    H255     H        0.22930    0.13580    0.80010    1.000
    H256     H        0.09980    0.85090    0.64040    1.000
    H257     H        0.14000    0.89260    0.57560    1.000
    H258     H        0.99380    0.68420    0.67920    1.000
    H259     H        0.87900    0.70850    0.57160    1.000
    H260     H        0.90070    0.09150    0.55610    1.000
    H261     H        0.01510    0.08400    0.66240    1.000
    H262     H        0.10360    0.25530    0.83860    1.000
    H263     H        0.12090    0.23260    0.78250    1.000
    H264     H        0.20900    0.12000    0.94100    1.000
    C265     C        0.22900    0.10890    0.70890    1.000
    C266     C        0.20940    0.08660    0.75370    1.000
    C267     C        0.15910    0.98870    0.72860    1.000
    C268     C        0.13310    0.91700    0.65950    1.000
    C269     C        0.15690    0.94430    0.62030    1.000
    C270     C        0.01950    0.88110    0.68220    1.000
    C271     C        0.97650    0.76790    0.65460    1.000
    C272     C        0.90710    0.78420    0.58940    1.000
    C273     C        0.92020    0.00850    0.58070    1.000
    C274     C        0.98900    0.00530    0.64440    1.000
    C275     C        0.22230    0.88200    0.90490    1.000
    C276     C        0.17740    0.99850    0.85210    1.000
    C277     C        0.17810    0.11530    0.88140    1.000
    C278     C        0.14080    0.24190    0.83770    1.000
    C279     C        0.18740    0.36480    0.87350    1.000
    N280     N        0.20340    0.04170    0.64210    1.000
    N281     N        0.13360    0.97250    0.76830    1.000
    N282     N        0.08850    0.86320    0.74440    1.000
    N283     N        0.87830    0.89880    0.55100    1.000
    O284     O        0.21736    0.77690    0.86920    1.000
    O285     O        0.26207    0.89560    0.97960    1.000
    O286     O        0.16130    0.47980    0.84720    1.000
    O287     O        0.25122    0.34820    0.92950    1.000
    H288     H        0.89113    0.76457    0.72431    1.000
