# CIF file generated by openbabel 3.1.0, see https://openbabel.org
data_I
_chemical_name_common 'image0'
_cell_length_a 9.014
_cell_length_b 12.273
_cell_length_c 17.835
_cell_angle_alpha 90
_cell_angle_beta 91.02
_cell_angle_gamma 90
_space_group_name_H-M_alt 'P 1'
_space_group_name_Hall 'P 1'
loop_
    _symmetry_equiv_pos_as_xyz
    x,y,z
loop_
    _atom_site_label
    _atom_site_type_symbol
    _atom_site_fract_x
    _atom_site_fract_y
    _atom_site_fract_z
    _atom_site_occupancy
    Cu1      Cu       0.62438    0.05625    0.00674    1.000
    Ag1      Ag       0.91234    0.08159    0.25736    1.000
    Ag2      Ag       0.85461    0.12647    0.75522    1.000
    C1       C        0.80110    0.07460    0.85990    1.000
    N1       N        0.75050    0.05850    0.91630    1.000
    C2       C        0.81320    0.04660    0.15520    1.000
    N2       N        0.75100    0.03900    0.09850    1.000
    Cu2      Cu       0.15129    0.28689    0.01479    1.000
    C3       C        0.00390    0.36600    0.85810    1.000
    N3       N        0.05890    0.33920    0.91320    1.000
    N4       N        0.02760    0.31370    0.10790    1.000
    C4       C        0.96350    0.33400    0.15990    1.000
    N5       N        0.34900    0.20380    0.00750    1.000
    C5       C        0.44490    0.14150    0.00690    1.000
    N6       N        0.25500    0.42930    0.03550    1.000
    C6       C        0.24660    0.51680    0.99160    1.000
    H1       H        0.19250    0.51250    0.94690    1.000
    C7       C        0.31570    0.61380    0.01030    1.000
    H2       H        0.30790    0.67370    0.97850    1.000
    C8       C        0.39520    0.62060    0.07560    1.000
    H3       H        0.44320    0.68510    0.08880    1.000
    C9       C        0.40390    0.53220    0.12150    1.000
    H4       H        0.45790    0.53500    0.16640    1.000
    C10      C        0.33030    0.43820    0.09980    1.000
    H5       H        0.33400    0.37830    0.13170    1.000
    N7       N        0.05030    0.14240    0.00250    1.000
    H6       H        0.95510    0.15280    0.99050    1.000
    H7       H        0.09360    0.10490    0.96620    1.000
    H8       H        0.05740    0.10530    0.04530    1.000
    Cu3      Cu       0.37562    0.55625    0.49326    1.000
    Ag3      Ag       0.08766    0.58159    0.24264    1.000
    Ag4      Ag       0.14539    0.62647    0.74478    1.000
    C11      C        0.19890    0.57460    0.64010    1.000
    N8       N        0.24950    0.55850    0.58370    1.000
    C12      C        0.18680    0.54660    0.34480    1.000
    N9       N        0.24900    0.53900    0.40150    1.000
    Cu4      Cu       0.84871    0.78689    0.48521    1.000
    C13      C        0.99610    0.86600    0.64190    1.000
    N10      N        0.94110    0.83920    0.58680    1.000
    N11      N        0.97240    0.81370    0.39210    1.000
    C14      C        0.03650    0.83400    0.34010    1.000
    N12      N        0.65100    0.70380    0.49250    1.000
    C15      C        0.55510    0.64150    0.49310    1.000
    N13      N        0.74500    0.92930    0.46450    1.000
    C16      C        0.75340    0.01680    0.50840    1.000
    H9       H        0.80750    0.01250    0.55310    1.000
    C17      C        0.68430    0.11380    0.48970    1.000
    H10      H        0.69210    0.17370    0.52150    1.000
    C18      C        0.60480    0.12060    0.42440    1.000
    H11      H        0.55680    0.18510    0.41120    1.000
    C19      C        0.59610    0.03220    0.37850    1.000
    H12      H        0.54210    0.03500    0.33360    1.000
    C20      C        0.66970    0.93820    0.40020    1.000
    H13      H        0.66600    0.87830    0.36830    1.000
    N14      N        0.94970    0.64240    0.49750    1.000
    H14      H        0.04490    0.65280    0.50950    1.000
    H15      H        0.90640    0.60490    0.53380    1.000
    H16      H        0.94260    0.60530    0.45470    1.000
    Cu5      Cu       0.37562    0.94375    0.99326    1.000
    Ag5      Ag       0.08766    0.91841    0.74264    1.000
    Ag6      Ag       0.14539    0.87353    0.24478    1.000
    C21      C        0.19890    0.92540    0.14010    1.000
    N15      N        0.24950    0.94150    0.08370    1.000
    C22      C        0.18680    0.95340    0.84480    1.000
    N16      N        0.24900    0.96100    0.90150    1.000
    Cu6      Cu       0.84871    0.71311    0.98521    1.000
    C23      C        0.99610    0.63400    0.14190    1.000
    N17      N        0.94110    0.66080    0.08680    1.000
    N18      N        0.97240    0.68630    0.89210    1.000
    C24      C        0.03650    0.66600    0.84010    1.000
    N19      N        0.65100    0.79620    0.99250    1.000
    C25      C        0.55510    0.85850    0.99310    1.000
    N20      N        0.74500    0.57070    0.96450    1.000
    C26      C        0.75340    0.48320    0.00840    1.000
    H17      H        0.80750    0.48750    0.05310    1.000
    C27      C        0.68430    0.38620    0.98970    1.000
    H18      H        0.69210    0.32630    0.02150    1.000
    C28      C        0.60480    0.37940    0.92440    1.000
    H19      H        0.55680    0.31490    0.91120    1.000
    C29      C        0.59610    0.46780    0.87850    1.000
    H20      H        0.54210    0.46500    0.83360    1.000
    C30      C        0.66970    0.56180    0.90020    1.000
    H21      H        0.66600    0.62170    0.86830    1.000
    N21      N        0.94970    0.85760    0.99750    1.000
    H22      H        0.04490    0.84720    0.00950    1.000
    H23      H        0.90640    0.89510    0.03380    1.000
    H24      H        0.94260    0.89470    0.95470    1.000
    Cu7      Cu       0.62438    0.44375    0.50674    1.000
    Ag7      Ag       0.91234    0.41841    0.75736    1.000
    Ag8      Ag       0.85461    0.37353    0.25522    1.000
    C31      C        0.80110    0.42540    0.35990    1.000
    N22      N        0.75050    0.44150    0.41630    1.000
    C32      C        0.81320    0.45340    0.65520    1.000
    N23      N        0.75100    0.46100    0.59850    1.000
    Cu8      Cu       0.15129    0.21311    0.51479    1.000
    C33      C        0.00390    0.13400    0.35810    1.000
    N24      N        0.05890    0.16080    0.41320    1.000
    N25      N        0.02760    0.18630    0.60790    1.000
    C34      C        0.96350    0.16600    0.65990    1.000
    N26      N        0.34900    0.29620    0.50750    1.000
    C35      C        0.44490    0.35850    0.50690    1.000
    N27      N        0.25500    0.07070    0.53550    1.000
    C36      C        0.24660    0.98320    0.49160    1.000
    H25      H        0.19250    0.98750    0.44690    1.000
    C37      C        0.31570    0.88620    0.51030    1.000
    H26      H        0.30790    0.82630    0.47850    1.000
    C38      C        0.39520    0.87940    0.57560    1.000
    H27      H        0.44320    0.81490    0.58880    1.000
    C39      C        0.40390    0.96780    0.62150    1.000
    H28      H        0.45790    0.96500    0.66640    1.000
    C40      C        0.33030    0.06180    0.59980    1.000
    H29      H        0.33400    0.12170    0.63170    1.000
    N28      N        0.05030    0.35760    0.50250    1.000
    H30      H        0.95510    0.34720    0.49050    1.000
    H31      H        0.09360    0.39510    0.46620    1.000
    H32      H        0.05740    0.39470    0.54530    1.000
