# CIF file generated by openbabel 3.1.0, see https://openbabel.org
data_I
_chemical_name_common 'image0'
_cell_length_a 16.2318
_cell_length_b 8.7252
_cell_length_c 20.7773
_cell_angle_alpha 90
_cell_angle_beta 94.984
_cell_angle_gamma 90
_space_group_name_H-M_alt 'P 1'
_space_group_name_Hall 'P 1'
loop_
    _symmetry_equiv_pos_as_xyz
    x,y,z
loop_
    _atom_site_label
    _atom_site_type_symbol
    _atom_site_fract_x
    _atom_site_fract_y
    _atom_site_fract_z
    _atom_site_occupancy
    Gd1      Gd       0.24231    0.22108    0.71218    1.000
    O1       O        0.17880    0.29900    0.80261    1.000
    O2       O        0.12530    0.35740    0.66190    1.000
    O3       O        0.37040    0.31990    0.74849    1.000
    O4       O        0.36360    0.54310    0.79908    1.000
    O5       O        0.17980    0.53670    0.84086    1.000
    O6       O        0.21170    0.53130    0.70468    1.000
    N1       N        0.98490    0.93390    0.49950    1.000
    C1       C        0.99510    0.68560    0.54640    1.000
    H1       H        0.94420    0.66380    0.52430    1.000
    C2       C        0.10930    0.85830    0.57020    1.000
    H2       H        0.13460    0.95220    0.56430    1.000
    C3       C        0.03440    0.57660    0.58700    1.000
    H3       H        0.00980    0.48150    0.59200    1.000
    C4       C        0.40250    0.43010    0.78070    1.000
    C5       C        0.14770    0.74800    0.61000    1.000
    H4       H        0.20000    0.76760    0.63030    1.000
    C6       C        0.14370    0.41570    0.82340    1.000
    C7       C        0.03190    0.82600    0.53900    1.000
    C8       C        0.05170    0.40630    0.82690    1.000
    C9       C        0.11010    0.60920    0.62010    1.000
    C10      C        0.00720    0.29000    0.79440    1.000
    H5       H        0.03510    0.21470    0.77320    1.000
    C11      C        0.15120    0.49320    0.66570    1.000
    C12      C        0.49400    0.42560    0.79730    1.000
    C13      C        0.53260    0.53810    0.83650    1.000
    H6       H        0.50110    0.61410    0.85400    1.000
    C14      C        0.00970    0.51590    0.85870    1.000
    H7       H        0.03840    0.59420    0.88130    1.000
    N2       N        0.75650    0.45990    0.83990    1.000
    C15      C        0.54060    0.31210    0.77310    1.000
    H8       H        0.51530    0.23430    0.74800    1.000
    C16      C        0.92290    0.50840    0.85680    1.000
    H9       H        0.89440    0.58180    0.87860    1.000
    C17      C        0.66320    0.43080    0.82430    1.000
    N3       N        0.78480    0.36130    0.81130    1.000
    C18      C        0.61680    0.53790    0.84970    1.000
    H10      H        0.64190    0.61280    0.87660    1.000
    C19      C        0.88020    0.39460    0.82350    1.000
    C20      C        0.92270    0.28460    0.79310    1.000
    H11      H        0.89390    0.20530    0.77130    1.000
    C21      C        0.62640    0.31370    0.78630    1.000
    H12      H        0.65860    0.23750    0.76980    1.000
    Gd2      Gd       0.25769    0.72108    0.78782    1.000
    O7       O        0.32120    0.79900    0.69739    1.000
    O8       O        0.37470    0.85740    0.83810    1.000
    O9       O        0.12960    0.81990    0.75151    1.000
    O10      O        0.13640    0.04310    0.70092    1.000
    O11      O        0.32020    0.03670    0.65914    1.000
    O12      O        0.28830    0.03130    0.79532    1.000
    N4       N        0.51510    0.43390    0.00050    1.000
    C22      C        0.50490    0.18560    0.95360    1.000
    H13      H        0.55580    0.16380    0.97570    1.000
    C23      C        0.39070    0.35830    0.92980    1.000
    H14      H        0.36540    0.45220    0.93570    1.000
    C24      C        0.46560    0.07660    0.91300    1.000
    H15      H        0.49020    0.98150    0.90800    1.000
    C25      C        0.09750    0.93010    0.71930    1.000
    C26      C        0.35230    0.24800    0.89000    1.000
    H16      H        0.30000    0.26760    0.86970    1.000
    C27      C        0.35630    0.91570    0.67660    1.000
    C28      C        0.46810    0.32600    0.96100    1.000
    C29      C        0.44830    0.90630    0.67310    1.000
    C30      C        0.38990    0.10920    0.87990    1.000
    C31      C        0.49280    0.79000    0.70560    1.000
    H17      H        0.46490    0.71470    0.72680    1.000
    C32      C        0.34880    0.99320    0.83430    1.000
    C33      C        0.00600    0.92560    0.70270    1.000
    C34      C        0.96740    0.03810    0.66350    1.000
    H18      H        0.99890    0.11410    0.64600    1.000
    C35      C        0.49030    0.01590    0.64130    1.000
    H19      H        0.46160    0.09420    0.61870    1.000
    N5       N        0.74350    0.95990    0.66010    1.000
    C36      C        0.95940    0.81210    0.72690    1.000
    H20      H        0.98470    0.73430    0.75200    1.000
    C37      C        0.57710    0.00840    0.64320    1.000
    H21      H        0.60560    0.08180    0.62140    1.000
    C38      C        0.83680    0.93080    0.67570    1.000
    N6       N        0.71520    0.86130    0.68870    1.000
    C39      C        0.88320    0.03790    0.65030    1.000
    H22      H        0.85810    0.11280    0.62340    1.000
    C40      C        0.61980    0.89460    0.67650    1.000
    C41      C        0.57730    0.78460    0.70690    1.000
    H23      H        0.60610    0.70530    0.72870    1.000
    C42      C        0.87360    0.81370    0.71370    1.000
    H24      H        0.84140    0.73750    0.73020    1.000
    Gd3      Gd       0.75769    0.77892    0.28782    1.000
    O13      O        0.82120    0.70100    0.19739    1.000
    O14      O        0.87470    0.64260    0.33810    1.000
    O15      O        0.62960    0.68010    0.25151    1.000
    O16      O        0.63640    0.45690    0.20092    1.000
    O17      O        0.82020    0.46330    0.15914    1.000
    O18      O        0.78830    0.46870    0.29532    1.000
    N7       N        0.01510    0.06610    0.50050    1.000
    C43      C        0.00490    0.31440    0.45360    1.000
    H25      H        0.05580    0.33620    0.47570    1.000
    C44      C        0.89070    0.14170    0.42980    1.000
    H26      H        0.86540    0.04780    0.43570    1.000
    C45      C        0.96560    0.42340    0.41300    1.000
    H27      H        0.99020    0.51850    0.40800    1.000
    C46      C        0.59750    0.56990    0.21930    1.000
    C47      C        0.85230    0.25200    0.39000    1.000
    H28      H        0.80000    0.23240    0.36970    1.000
    C48      C        0.85630    0.58430    0.17660    1.000
    C49      C        0.96810    0.17400    0.46100    1.000
    C50      C        0.94830    0.59370    0.17310    1.000
    C51      C        0.88990    0.39080    0.37990    1.000
    C52      C        0.99280    0.71000    0.20560    1.000
    H29      H        0.96490    0.78530    0.22680    1.000
    C53      C        0.84880    0.50680    0.33430    1.000
    C54      C        0.50600    0.57440    0.20270    1.000
    C55      C        0.46740    0.46190    0.16350    1.000
    H30      H        0.49890    0.38590    0.14600    1.000
    C56      C        0.99030    0.48410    0.14130    1.000
    H31      H        0.96160    0.40580    0.11870    1.000
    N8       N        0.24350    0.54010    0.16010    1.000
    C57      C        0.45940    0.68790    0.22690    1.000
    H32      H        0.48470    0.76570    0.25200    1.000
    C58      C        0.07710    0.49160    0.14320    1.000
    H33      H        0.10560    0.41820    0.12140    1.000
    C59      C        0.33680    0.56920    0.17570    1.000
    N9       N        0.21520    0.63870    0.18870    1.000
    C60      C        0.38320    0.46210    0.15030    1.000
    H34      H        0.35810    0.38720    0.12340    1.000
    C61      C        0.11980    0.60540    0.17650    1.000
    C62      C        0.07730    0.71540    0.20690    1.000
    H35      H        0.10610    0.79470    0.22870    1.000
    C63      C        0.37360    0.68630    0.21370    1.000
    H36      H        0.34140    0.76250    0.23020    1.000
    Gd4      Gd       0.74231    0.27892    0.21218    1.000
    O19      O        0.67880    0.20100    0.30261    1.000
    O20      O        0.62530    0.14260    0.16190    1.000
    O21      O        0.87040    0.18010    0.24849    1.000
    O22      O        0.86360    0.95690    0.29908    1.000
    O23      O        0.67980    0.96330    0.34086    1.000
    O24      O        0.71170    0.96870    0.20468    1.000
    N10      N        0.48490    0.56610    0.99950    1.000
    C64      C        0.49510    0.81440    0.04640    1.000
    H37      H        0.44420    0.83620    0.02430    1.000
    C65      C        0.60930    0.64170    0.07020    1.000
    H38      H        0.63460    0.54780    0.06430    1.000
    C66      C        0.53440    0.92340    0.08700    1.000
    H39      H        0.50980    0.01850    0.09200    1.000
    C67      C        0.90250    0.06990    0.28070    1.000
    C68      C        0.64770    0.75200    0.11000    1.000
    H40      H        0.70000    0.73240    0.13030    1.000
    C69      C        0.64370    0.08430    0.32340    1.000
    C70      C        0.53190    0.67400    0.03900    1.000
    C71      C        0.55170    0.09370    0.32690    1.000
    C72      C        0.61010    0.89080    0.12010    1.000
    C73      C        0.50720    0.21000    0.29440    1.000
    H41      H        0.53510    0.28530    0.27320    1.000
    C74      C        0.65120    0.00680    0.16570    1.000
    C75      C        0.99400    0.07440    0.29730    1.000
    C76      C        0.03260    0.96190    0.33650    1.000
    H42      H        0.00110    0.88590    0.35400    1.000
    C77      C        0.50970    0.98410    0.35870    1.000
    H43      H        0.53840    0.90580    0.38130    1.000
    N11      N        0.25650    0.04010    0.33990    1.000
    C78      C        0.04060    0.18790    0.27310    1.000
    H44      H        0.01530    0.26570    0.24800    1.000
    C79      C        0.42290    0.99160    0.35680    1.000
    H45      H        0.39440    0.91820    0.37860    1.000
    C80      C        0.16320    0.06920    0.32430    1.000
    N12      N        0.28480    0.13870    0.31130    1.000
    C81      C        0.11680    0.96210    0.34970    1.000
    H46      H        0.14190    0.88720    0.37660    1.000
    C82      C        0.38020    0.10540    0.32350    1.000
    C83      C        0.42270    0.21540    0.29310    1.000
    H47      H        0.39390    0.29470    0.27130    1.000
    C84      C        0.12640    0.18630    0.28630    1.000
    H48      H        0.15860    0.26250    0.26980    1.000
