# CIF file generated by openbabel 3.1.0, see https://openbabel.org
data_I
_chemical_name_common 'image0'
_cell_length_a 15.439
_cell_length_b 15.439
_cell_length_c 28.034
_cell_angle_alpha 90
_cell_angle_beta 90
_cell_angle_gamma 90
_space_group_name_H-M_alt 'P 1'
_space_group_name_Hall 'P 1'
loop_
    _symmetry_equiv_pos_as_xyz
    x,y,z
loop_
    _atom_site_label
    _atom_site_type_symbol
    _atom_site_fract_x
    _atom_site_fract_y
    _atom_site_fract_z
    _atom_site_occupancy
    O1       O        0.10508    0.07671    0.78823    1.000
    C1       C        0.16897    0.26539    0.77154    1.000
    C2       C        0.08680    0.28440    0.79351    1.000
    H1       H        0.04240    0.24180    0.79370    1.000
    C3       C        0.07250    0.36220    0.81380    1.000
    H2       H        0.01820    0.37370    0.82830    1.000
    C4       C        0.04630    0.94410    0.94870    1.000
    H3       H        0.08320    0.90320    0.96460    1.000
    C5       C        0.04260    0.94770    0.89910    1.000
    H4       H        0.07440    0.90440    0.88180    1.000
    O2       O        0.60508    0.57671    0.28823    1.000
    C6       C        0.66897    0.76539    0.27154    1.000
    C7       C        0.58680    0.78440    0.29351    1.000
    H5       H        0.54240    0.74180    0.29370    1.000
    C8       C        0.57250    0.86220    0.31380    1.000
    H6       H        0.51820    0.87370    0.32830    1.000
    C9       C        0.54630    0.44410    0.44870    1.000
    H7       H        0.58320    0.40320    0.46460    1.000
    C10      C        0.54260    0.44770    0.39910    1.000
    H8       H        0.57440    0.40440    0.38180    1.000
    O3       O        0.89492    0.92329    0.78823    1.000
    C11      C        0.83103    0.73461    0.77154    1.000
    C12      C        0.91320    0.71560    0.79351    1.000
    H9       H        0.95760    0.75820    0.79370    1.000
    C13      C        0.92750    0.63780    0.81380    1.000
    H10      H        0.98180    0.62630    0.82830    1.000
    C14      C        0.95370    0.05590    0.94870    1.000
    H11      H        0.91680    0.09680    0.96460    1.000
    C15      C        0.95740    0.05230    0.89910    1.000
    H12      H        0.92560    0.09560    0.88180    1.000
    O4       O        0.39492    0.42329    0.28823    1.000
    C16      C        0.33103    0.23461    0.27154    1.000
    C17      C        0.41320    0.21560    0.29351    1.000
    H13      H        0.45760    0.25820    0.29370    1.000
    C18      C        0.42750    0.13780    0.31380    1.000
    H14      H        0.48180    0.12630    0.32830    1.000
    C19      C        0.45370    0.55590    0.44870    1.000
    H15      H        0.41680    0.59680    0.46460    1.000
    C20      C        0.45740    0.55230    0.39910    1.000
    H16      H        0.42560    0.59560    0.38180    1.000
    O5       O        0.92329    0.10508    0.78823    1.000
    C21      C        0.73461    0.16897    0.77154    1.000
    C22      C        0.71560    0.08680    0.79351    1.000
    H17      H        0.75820    0.04240    0.79370    1.000
    C23      C        0.63780    0.07250    0.81380    1.000
    H18      H        0.62630    0.01820    0.82830    1.000
    C24      C        0.05590    0.04630    0.94870    1.000
    H19      H        0.09680    0.08320    0.96460    1.000
    C25      C        0.05230    0.04260    0.89910    1.000
    H20      H        0.09560    0.07440    0.88180    1.000
    O6       O        0.42329    0.60508    0.28823    1.000
    C26      C        0.23461    0.66897    0.27154    1.000
    C27      C        0.21560    0.58680    0.29351    1.000
    H21      H        0.25820    0.54240    0.29370    1.000
    C28      C        0.13780    0.57250    0.31380    1.000
    H22      H        0.12630    0.51820    0.32830    1.000
    C29      C        0.55590    0.54630    0.44870    1.000
    H23      H        0.59680    0.58320    0.46460    1.000
    C30      C        0.55230    0.54260    0.39910    1.000
    H24      H        0.59560    0.57440    0.38180    1.000
    O7       O        0.07671    0.89492    0.78823    1.000
    C31      C        0.26539    0.83103    0.77154    1.000
    C32      C        0.28440    0.91320    0.79351    1.000
    H25      H        0.24180    0.95760    0.79370    1.000
    C33      C        0.36220    0.92750    0.81380    1.000
    H26      H        0.37370    0.98180    0.82830    1.000
    C34      C        0.94410    0.95370    0.94870    1.000
    H27      H        0.90320    0.91680    0.96460    1.000
    C35      C        0.94770    0.95740    0.89910    1.000
    H28      H        0.90440    0.92560    0.88180    1.000
    O8       O        0.57671    0.39492    0.28823    1.000
    C36      C        0.76539    0.33103    0.27154    1.000
    C37      C        0.78440    0.41320    0.29351    1.000
    H29      H        0.74180    0.45760    0.29370    1.000
    C38      C        0.86220    0.42750    0.31380    1.000
    H30      H        0.87370    0.48180    0.32830    1.000
    C39      C        0.44410    0.45370    0.44870    1.000
    H31      H        0.40320    0.41680    0.46460    1.000
    C40      C        0.44770    0.45740    0.39910    1.000
    H32      H        0.40440    0.42560    0.38180    1.000
    O9       O        0.89492    0.07671    0.71177    1.000
    C41      C        0.83103    0.26539    0.72846    1.000
    C42      C        0.91320    0.28440    0.70649    1.000
    H33      H        0.95760    0.24180    0.70630    1.000
    C43      C        0.92750    0.36220    0.68620    1.000
    H34      H        0.98180    0.37370    0.67170    1.000
    C44      C        0.95370    0.94410    0.55130    1.000
    H35      H        0.91680    0.90320    0.53540    1.000
    C45      C        0.95740    0.94770    0.60090    1.000
    H36      H        0.92560    0.90440    0.61820    1.000
    O10      O        0.39492    0.57671    0.21177    1.000
    C46      C        0.33103    0.76539    0.22846    1.000
    C47      C        0.41320    0.78440    0.20649    1.000
    H37      H        0.45760    0.74180    0.20630    1.000
    C48      C        0.42750    0.86220    0.18620    1.000
    H38      H        0.48180    0.87370    0.17170    1.000
    C49      C        0.45370    0.44410    0.05130    1.000
    H39      H        0.41680    0.40320    0.03540    1.000
    C50      C        0.45740    0.44770    0.10090    1.000
    H40      H        0.42560    0.40440    0.11820    1.000
    O11      O        0.10508    0.92329    0.71177    1.000
    C51      C        0.16897    0.73461    0.72846    1.000
    C52      C        0.08680    0.71560    0.70649    1.000
    H41      H        0.04240    0.75820    0.70630    1.000
    C53      C        0.07250    0.63780    0.68620    1.000
    H42      H        0.01820    0.62630    0.67170    1.000
    C54      C        0.04630    0.05590    0.55130    1.000
    H43      H        0.08320    0.09680    0.53540    1.000
    C55      C        0.04260    0.05230    0.60090    1.000
    H44      H        0.07440    0.09560    0.61820    1.000
    O12      O        0.60508    0.42329    0.21177    1.000
    C56      C        0.66897    0.23461    0.22846    1.000
    C57      C        0.58680    0.21560    0.20649    1.000
    H45      H        0.54240    0.25820    0.20630    1.000
    C58      C        0.57250    0.13780    0.18620    1.000
    H46      H        0.51820    0.12630    0.17170    1.000
    C59      C        0.54630    0.55590    0.05130    1.000
    H47      H        0.58320    0.59680    0.03540    1.000
    C60      C        0.54260    0.55230    0.10090    1.000
    H48      H        0.57440    0.59560    0.11820    1.000
    O13      O        0.07671    0.10508    0.71177    1.000
    C61      C        0.26539    0.16897    0.72846    1.000
    C62      C        0.28440    0.08680    0.70649    1.000
    H49      H        0.24180    0.04240    0.70630    1.000
    C63      C        0.36220    0.07250    0.68620    1.000
    H50      H        0.37370    0.01820    0.67170    1.000
    C64      C        0.94410    0.04630    0.55130    1.000
    H51      H        0.90320    0.08320    0.53540    1.000
    C65      C        0.94770    0.04260    0.60090    1.000
    H52      H        0.90440    0.07440    0.61820    1.000
    O14      O        0.57671    0.60508    0.21177    1.000
    C66      C        0.76539    0.66897    0.22846    1.000
    C67      C        0.78440    0.58680    0.20649    1.000
    H53      H        0.74180    0.54240    0.20630    1.000
    C68      C        0.86220    0.57250    0.18620    1.000
    H54      H        0.87370    0.51820    0.17170    1.000
    C69      C        0.44410    0.54630    0.05130    1.000
    H55      H        0.40320    0.58320    0.03540    1.000
    C70      C        0.44770    0.54260    0.10090    1.000
    H56      H        0.40440    0.57440    0.11820    1.000
    O15      O        0.92329    0.89492    0.71177    1.000
    C71      C        0.73461    0.83103    0.72846    1.000
    C72      C        0.71560    0.91320    0.70649    1.000
    H57      H        0.75820    0.95760    0.70630    1.000
    C73      C        0.63780    0.92750    0.68620    1.000
    H58      H        0.62630    0.98180    0.67170    1.000
    C74      C        0.05590    0.95370    0.55130    1.000
    H59      H        0.09680    0.91680    0.53540    1.000
    C75      C        0.05230    0.95740    0.60090    1.000
    H60      H        0.09560    0.92560    0.61820    1.000
    O16      O        0.42329    0.39492    0.21177    1.000
    C76      C        0.23461    0.33103    0.22846    1.000
    C77      C        0.21560    0.41320    0.20649    1.000
    H61      H        0.25820    0.45760    0.20630    1.000
    C78      C        0.13780    0.42750    0.18620    1.000
    H62      H        0.12630    0.48180    0.17170    1.000
    C79      C        0.55590    0.45370    0.05130    1.000
    H63      H        0.59680    0.41680    0.03540    1.000
    C80      C        0.55230    0.45740    0.10090    1.000
    H64      H        0.59560    0.42560    0.11820    1.000
    O17      O        0.89492    0.92329    0.21177    1.000
    C81      C        0.83103    0.73461    0.22846    1.000
    C82      C        0.91320    0.71560    0.20649    1.000
    H65      H        0.95760    0.75820    0.20630    1.000
    C83      C        0.92750    0.63780    0.18620    1.000
    H66      H        0.98180    0.62630    0.17170    1.000
    C84      C        0.95370    0.05590    0.05130    1.000
    H67      H        0.91680    0.09680    0.03540    1.000
    C85      C        0.95740    0.05230    0.10090    1.000
    H68      H        0.92560    0.09560    0.11820    1.000
    O18      O        0.39492    0.42329    0.71177    1.000
    C86      C        0.33103    0.23461    0.72846    1.000
    C87      C        0.41320    0.21560    0.70649    1.000
    H69      H        0.45760    0.25820    0.70630    1.000
    C88      C        0.42750    0.13780    0.68620    1.000
    H70      H        0.48180    0.12630    0.67170    1.000
    C89      C        0.45370    0.55590    0.55130    1.000
    H71      H        0.41680    0.59680    0.53540    1.000
    C90      C        0.45740    0.55230    0.60090    1.000
    H72      H        0.42560    0.59560    0.61820    1.000
    O19      O        0.10508    0.07671    0.21177    1.000
    C91      C        0.16897    0.26539    0.22846    1.000
    C92      C        0.08680    0.28440    0.20649    1.000
    H73      H        0.04240    0.24180    0.20630    1.000
    C93      C        0.07250    0.36220    0.18620    1.000
    H74      H        0.01820    0.37370    0.17170    1.000
    C94      C        0.04630    0.94410    0.05130    1.000
    H75      H        0.08320    0.90320    0.03540    1.000
    C95      C        0.04260    0.94770    0.10090    1.000
    H76      H        0.07440    0.90440    0.11820    1.000
    O20      O        0.60508    0.57671    0.71177    1.000
    C96      C        0.66897    0.76539    0.72846    1.000
    C97      C        0.58680    0.78440    0.70649    1.000
    H77      H        0.54240    0.74180    0.70630    1.000
    C98      C        0.57250    0.86220    0.68620    1.000
    H78      H        0.51820    0.87370    0.67170    1.000
    C99      C        0.54630    0.44410    0.55130    1.000
    H79      H        0.58320    0.40320    0.53540    1.000
    C100     C        0.54260    0.44770    0.60090    1.000
    H80      H        0.57440    0.40440    0.61820    1.000
    O21      O        0.07671    0.89492    0.21177    1.000
    C101     C        0.26539    0.83103    0.22846    1.000
    C102     C        0.28440    0.91320    0.20649    1.000
    H81      H        0.24180    0.95760    0.20630    1.000
    C103     C        0.36220    0.92750    0.18620    1.000
    H82      H        0.37370    0.98180    0.17170    1.000
    C104     C        0.94410    0.95370    0.05130    1.000
    H83      H        0.90320    0.91680    0.03540    1.000
    C105     C        0.94770    0.95740    0.10090    1.000
    H84      H        0.90440    0.92560    0.11820    1.000
    O22      O        0.57671    0.39492    0.71177    1.000
    C106     C        0.76539    0.33103    0.72846    1.000
    C107     C        0.78440    0.41320    0.70649    1.000
    H85      H        0.74180    0.45760    0.70630    1.000
    C108     C        0.86220    0.42750    0.68620    1.000
    H86      H        0.87370    0.48180    0.67170    1.000
    C109     C        0.44410    0.45370    0.55130    1.000
    H87      H        0.40320    0.41680    0.53540    1.000
    C110     C        0.44770    0.45740    0.60090    1.000
    H88      H        0.40440    0.42560    0.61820    1.000
    O23      O        0.92329    0.10508    0.21177    1.000
    C111     C        0.73461    0.16897    0.22846    1.000
    C112     C        0.71560    0.08680    0.20649    1.000
    H89      H        0.75820    0.04240    0.20630    1.000
    C113     C        0.63780    0.07250    0.18620    1.000
    H90      H        0.62630    0.01820    0.17170    1.000
    C114     C        0.05590    0.04630    0.05130    1.000
    H91      H        0.09680    0.08320    0.03540    1.000
    C115     C        0.05230    0.04260    0.10090    1.000
    H92      H        0.09560    0.07440    0.11820    1.000
    O24      O        0.42329    0.60508    0.71177    1.000
    C116     C        0.23461    0.66897    0.72846    1.000
    C117     C        0.21560    0.58680    0.70649    1.000
    H93      H        0.25820    0.54240    0.70630    1.000
    C118     C        0.13780    0.57250    0.68620    1.000
    H94      H        0.12630    0.51820    0.67170    1.000
    C119     C        0.55590    0.54630    0.55130    1.000
    H95      H        0.59680    0.58320    0.53540    1.000
    C120     C        0.55230    0.54260    0.60090    1.000
    H96      H        0.59560    0.57440    0.61820    1.000
    O25      O        0.10508    0.92329    0.28823    1.000
    C121     C        0.16897    0.73461    0.27154    1.000
    C122     C        0.08680    0.71560    0.29351    1.000
    H97      H        0.04240    0.75820    0.29370    1.000
    C123     C        0.07250    0.63780    0.31380    1.000
    H98      H        0.01820    0.62630    0.32830    1.000
    C124     C        0.04630    0.05590    0.44870    1.000
    H99      H        0.08320    0.09680    0.46460    1.000
    C125     C        0.04260    0.05230    0.39910    1.000
    H100     H        0.07440    0.09560    0.38180    1.000
    O26      O        0.60508    0.42329    0.78823    1.000
    C126     C        0.66897    0.23461    0.77154    1.000
    C127     C        0.58680    0.21560    0.79351    1.000
    H101     H        0.54240    0.25820    0.79370    1.000
    C128     C        0.57250    0.13780    0.81380    1.000
    H102     H        0.51820    0.12630    0.82830    1.000
    C129     C        0.54630    0.55590    0.94870    1.000
    H103     H        0.58320    0.59680    0.96460    1.000
    C130     C        0.54260    0.55230    0.89910    1.000
    H104     H        0.57440    0.59560    0.88180    1.000
    O27      O        0.89492    0.07671    0.28823    1.000
    C131     C        0.83103    0.26539    0.27154    1.000
    C132     C        0.91320    0.28440    0.29351    1.000
    H105     H        0.95760    0.24180    0.29370    1.000
    C133     C        0.92750    0.36220    0.31380    1.000
    H106     H        0.98180    0.37370    0.32830    1.000
    C134     C        0.95370    0.94410    0.44870    1.000
    H107     H        0.91680    0.90320    0.46460    1.000
    C135     C        0.95740    0.94770    0.39910    1.000
    H108     H        0.92560    0.90440    0.38180    1.000
    O28      O        0.39492    0.57671    0.78823    1.000
    C136     C        0.33103    0.76539    0.77154    1.000
    C137     C        0.41320    0.78440    0.79351    1.000
    H109     H        0.45760    0.74180    0.79370    1.000
    C138     C        0.42750    0.86220    0.81380    1.000
    H110     H        0.48180    0.87370    0.82830    1.000
    C139     C        0.45370    0.44410    0.94870    1.000
    H111     H        0.41680    0.40320    0.96460    1.000
    C140     C        0.45740    0.44770    0.89910    1.000
    H112     H        0.42560    0.40440    0.88180    1.000
    O29      O        0.92329    0.89492    0.28823    1.000
    C141     C        0.73461    0.83103    0.27154    1.000
    C142     C        0.71560    0.91320    0.29351    1.000
    H113     H        0.75820    0.95760    0.29370    1.000
    C143     C        0.63780    0.92750    0.31380    1.000
    H114     H        0.62630    0.98180    0.32830    1.000
    C144     C        0.05590    0.95370    0.44870    1.000
    H115     H        0.09680    0.91680    0.46460    1.000
    C145     C        0.05230    0.95740    0.39910    1.000
    H116     H        0.09560    0.92560    0.38180    1.000
    O30      O        0.42329    0.39492    0.78823    1.000
    C146     C        0.23461    0.33103    0.77154    1.000
    C147     C        0.21560    0.41320    0.79351    1.000
    H117     H        0.25820    0.45760    0.79370    1.000
    C148     C        0.13780    0.42750    0.81380    1.000
    H118     H        0.12630    0.48180    0.82830    1.000
    C149     C        0.55590    0.45370    0.94870    1.000
    H119     H        0.59680    0.41680    0.96460    1.000
    C150     C        0.55230    0.45740    0.89910    1.000
    H120     H        0.59560    0.42560    0.88180    1.000
    O31      O        0.07671    0.10508    0.28823    1.000
    C151     C        0.26539    0.16897    0.27154    1.000
    C152     C        0.28440    0.08680    0.29351    1.000
    H121     H        0.24180    0.04240    0.29370    1.000
    C153     C        0.36220    0.07250    0.31380    1.000
    H122     H        0.37370    0.01820    0.32830    1.000
    C154     C        0.94410    0.04630    0.44870    1.000
    H123     H        0.90320    0.08320    0.46460    1.000
    C155     C        0.94770    0.04260    0.39910    1.000
    H124     H        0.90440    0.07440    0.38180    1.000
    O32      O        0.57671    0.60508    0.78823    1.000
    C156     C        0.76539    0.66897    0.77154    1.000
    C157     C        0.78440    0.58680    0.79351    1.000
    H125     H        0.74180    0.54240    0.79370    1.000
    C158     C        0.86220    0.57250    0.81380    1.000
    H126     H        0.87370    0.51820    0.82830    1.000
    C159     C        0.44410    0.54630    0.94870    1.000
    H127     H        0.40320    0.58320    0.96460    1.000
    C160     C        0.44770    0.54260    0.89910    1.000
    H128     H        0.40440    0.57440    0.88180    1.000
    Zn1      Zn       0.00000    0.00000    0.80217    1.000
    N1       N        0.00000    0.00000    0.87430    1.000
    C161     C        0.00000    0.00000    0.97310    1.000
    Zn2      Zn       0.50000    0.50000    0.30217    1.000
    N2       N        0.50000    0.50000    0.37430    1.000
    C162     C        0.50000    0.50000    0.47310    1.000
    Zn3      Zn       0.00000    0.00000    0.69783    1.000
    N3       N        0.00000    0.00000    0.62570    1.000
    C163     C        0.00000    0.00000    0.52690    1.000
    Zn4      Zn       0.50000    0.50000    0.19783    1.000
    N4       N        0.50000    0.50000    0.12570    1.000
    C164     C        0.50000    0.50000    0.02690    1.000
    Zn5      Zn       0.00000    0.00000    0.19783    1.000
    N5       N        0.00000    0.00000    0.12570    1.000
    C165     C        0.00000    0.00000    0.02690    1.000
    Zn6      Zn       0.50000    0.50000    0.69783    1.000
    N6       N        0.50000    0.50000    0.62570    1.000
    C166     C        0.50000    0.50000    0.52690    1.000
    Zn7      Zn       0.00000    0.00000    0.30217    1.000
    N7       N        0.00000    0.00000    0.37430    1.000
    C167     C        0.00000    0.00000    0.47310    1.000
    Zn8      Zn       0.50000    0.50000    0.80217    1.000
    N8       N        0.50000    0.50000    0.87430    1.000
    C168     C        0.50000    0.50000    0.97310    1.000
    C169     C        0.18601    0.18601    0.75000    1.000
    C170     C        0.11674    0.11674    0.75000    1.000
    C171     C        0.68601    0.68601    0.25000    1.000
    C172     C        0.61674    0.61674    0.25000    1.000
    C173     C        0.81399    0.81399    0.75000    1.000
    C174     C        0.88326    0.88326    0.75000    1.000
    C175     C        0.31399    0.31399    0.25000    1.000
    C176     C        0.38326    0.38326    0.25000    1.000
    C177     C        0.81399    0.18601    0.75000    1.000
    C178     C        0.88326    0.11674    0.75000    1.000
    C179     C        0.31399    0.68601    0.25000    1.000
    C180     C        0.38326    0.61674    0.25000    1.000
    C181     C        0.18601    0.81399    0.75000    1.000
    C182     C        0.11674    0.88326    0.75000    1.000
    C183     C        0.68601    0.31399    0.25000    1.000
    C184     C        0.61674    0.38326    0.25000    1.000
    C185     C        0.81399    0.81399    0.25000    1.000
    C186     C        0.88326    0.88326    0.25000    1.000
    C187     C        0.31399    0.31399    0.75000    1.000
    C188     C        0.38326    0.38326    0.75000    1.000
    C189     C        0.18601    0.18601    0.25000    1.000
    C190     C        0.11674    0.11674    0.25000    1.000
    C191     C        0.68601    0.68601    0.75000    1.000
    C192     C        0.61674    0.61674    0.75000    1.000
    C193     C        0.18601    0.81399    0.25000    1.000
    C194     C        0.11674    0.88326    0.25000    1.000
    C195     C        0.68601    0.31399    0.75000    1.000
    C196     C        0.61674    0.38326    0.75000    1.000
    C197     C        0.81399    0.18601    0.25000    1.000
    C198     C        0.88326    0.11674    0.25000    1.000
    C199     C        0.31399    0.68601    0.75000    1.000
    C200     C        0.38326    0.61674    0.75000    1.000
