# CIF file generated by openbabel 3.1.0, see https://openbabel.org
data_I
_chemical_name_common 'image0'
_cell_length_a 6.6537
_cell_length_b 8.0998
_cell_length_c 20.179
_cell_angle_alpha 90
_cell_angle_beta 90
_cell_angle_gamma 90
_space_group_name_H-M_alt 'P 1'
_space_group_name_Hall 'P 1'
loop_
    _symmetry_equiv_pos_as_xyz
    x,y,z
loop_
    _atom_site_label
    _atom_site_type_symbol
    _atom_site_fract_x
    _atom_site_fract_y
    _atom_site_fract_z
    _atom_site_occupancy
    Y1       Y        0.50681    0.94595    0.11947    1.000
    O1       O        0.17010    0.93590    0.15590    1.000
    O2       O        0.51060    0.58900    0.28169    1.000
    O3       O        0.83250    0.59940    0.98053    1.000
    O4       O        0.40070    0.22290    0.09013    1.000
    O5       O        0.67440    0.12830    0.04277    1.000
    O6       O        0.83870    0.95750    0.16045    1.000
    O7       O        0.49760    0.72120    0.18650    1.000
    O8       O        0.68680    0.73450    0.06301    1.000
    C1       C        0.54990    0.24100    0.05256    1.000
    H1       H        0.56840    0.34390    0.03090    1.000
    C2       C        0.00380    0.96900    0.13083    1.000
    H2       H        0.00200    0.00560    0.08610    1.000
    C3       C        0.74500    0.72120    0.00448    1.000
    H3       H        0.72040    0.81190    0.97580    1.000
    C4       C        0.41920    0.66710    0.23804    1.000
    H4       H        0.27990    0.68690    0.24450    1.000
    Y2       Y        0.99319    0.05405    0.61947    1.000
    O9       O        0.32990    0.06410    0.65590    1.000
    O10      O        0.98940    0.41100    0.78169    1.000
    O11      O        0.66750    0.40060    0.48053    1.000
    O12      O        0.09930    0.77710    0.59013    1.000
    O13      O        0.82560    0.87170    0.54277    1.000
    O14      O        0.66130    0.04250    0.66045    1.000
    O15      O        0.00240    0.27880    0.68650    1.000
    O16      O        0.81320    0.26550    0.56301    1.000
    C5       C        0.95010    0.75900    0.55256    1.000
    H5       H        0.93160    0.65610    0.53090    1.000
    C6       C        0.49620    0.03100    0.63083    1.000
    H6       H        0.49800    0.99440    0.58610    1.000
    C7       C        0.75500    0.27880    0.50448    1.000
    H7       H        0.77960    0.18810    0.47580    1.000
    C8       C        0.08080    0.33290    0.73804    1.000
    H8       H        0.22010    0.31310    0.74450    1.000
    Y3       Y        0.49319    0.44595    0.38053    1.000
    O17      O        0.82990    0.43590    0.34410    1.000
    O18      O        0.48940    0.08900    0.21831    1.000
    O19      O        0.16750    0.09940    0.51947    1.000
    O20      O        0.59930    0.72290    0.40987    1.000
    O21      O        0.32560    0.62830    0.45723    1.000
    O22      O        0.16130    0.45750    0.33955    1.000
    O23      O        0.50240    0.22120    0.31350    1.000
    O24      O        0.31320    0.23450    0.43699    1.000
    C9       C        0.45010    0.74100    0.44744    1.000
    H9       H        0.43160    0.84390    0.46910    1.000
    C10      C        0.99620    0.46900    0.36917    1.000
    H10      H        0.99800    0.50560    0.41390    1.000
    C11      C        0.25500    0.22120    0.49552    1.000
    H11      H        0.27960    0.31190    0.52420    1.000
    C12      C        0.58080    0.16710    0.26196    1.000
    H12      H        0.72010    0.18690    0.25550    1.000
    Y4       Y        0.00681    0.55405    0.88053    1.000
    O25      O        0.67010    0.56410    0.84410    1.000
    O26      O        0.01060    0.91100    0.71831    1.000
    O27      O        0.33250    0.90060    0.01947    1.000
    O28      O        0.90070    0.27710    0.90987    1.000
    O29      O        0.17440    0.37170    0.95723    1.000
    O30      O        0.33870    0.54250    0.83955    1.000
    O31      O        0.99760    0.77880    0.81350    1.000
    O32      O        0.18680    0.76550    0.93699    1.000
    C13      C        0.04990    0.25900    0.94744    1.000
    H13      H        0.06840    0.15610    0.96910    1.000
    C14      C        0.50380    0.53100    0.86917    1.000
    H14      H        0.50200    0.49440    0.91390    1.000
    C15      C        0.24500    0.77880    0.99552    1.000
    H15      H        0.22040    0.68810    0.02420    1.000
    C16      C        0.91920    0.83290    0.76196    1.000
    H16      H        0.77990    0.81310    0.75550    1.000
