# CIF file generated by openbabel 3.1.0, see https://openbabel.org
data_I
_chemical_name_common 'image0'
_cell_length_a 7.17
_cell_length_b 7.17
_cell_length_c 13.662
_cell_angle_alpha 90
_cell_angle_beta 90
_cell_angle_gamma 90
_space_group_name_H-M_alt 'P 1'
_space_group_name_Hall 'P 1'
loop_
    _symmetry_equiv_pos_as_xyz
    x,y,z
loop_
    _atom_site_label
    _atom_site_type_symbol
    _atom_site_fract_x
    _atom_site_fract_y
    _atom_site_fract_z
    _atom_site_occupancy
    Pt1      Pt       0.50000    0.50000    0.50000    1.000
    Fe1      Fe       0.00000    0.00000    0.50000    1.000
    N1       N        0.00000    0.00000    0.64610    1.000
    C1       C        0.00000    0.00000    0.85180    1.000
    C2       C        0.00000    0.00000    0.95760    1.000
    N2       N        0.00000    0.00000    0.35390    1.000
    C3       C        0.00000    0.00000    0.14820    1.000
    C4       C        0.00000    0.00000    0.04240    1.000
    N3       N        0.80920    0.19080    0.50000    1.000
    C5       C        0.69560    0.30440    0.50000    1.000
    N4       N        0.19080    0.80920    0.50000    1.000
    C6       C        0.30440    0.69560    0.50000    1.000
    N5       N        0.80920    0.80920    0.50000    1.000
    C7       C        0.69560    0.69560    0.50000    1.000
    N6       N        0.19080    0.19080    0.50000    1.000
    C8       C        0.30440    0.30440    0.50000    1.000
    C9       C        0.83870    0.00000    0.69500    1.000
    C10      C        0.83420    0.00000    0.79890    1.000
    C11      C        0.16130    0.00000    0.69500    1.000
    C12      C        0.16580    0.00000    0.79890    1.000
    C13      C        0.00000    0.83870    0.69500    1.000
    C14      C        0.00000    0.83420    0.79890    1.000
    C15      C        0.00000    0.16130    0.69500    1.000
    C16      C        0.00000    0.16580    0.79890    1.000
    C17      C        0.16130    0.00000    0.30500    1.000
    C18      C        0.16580    0.00000    0.20110    1.000
    C19      C        0.83870    0.00000    0.30500    1.000
    C20      C        0.83420    0.00000    0.20110    1.000
    C21      C        0.00000    0.83870    0.30500    1.000
    C22      C        0.00000    0.83420    0.20110    1.000
    C23      C        0.00000    0.16130    0.30500    1.000
    C24      C        0.00000    0.16580    0.20110    1.000
