# CIF file generated by openbabel 3.1.0, see https://openbabel.org
data_I
_chemical_name_common 'image0'
_cell_length_a 5.1646
_cell_length_b 24.466
_cell_length_c 11.585
_cell_angle_alpha 90
_cell_angle_beta 101.559
_cell_angle_gamma 90
_space_group_name_H-M_alt 'P 1'
_space_group_name_Hall 'P 1'
loop_
    _symmetry_equiv_pos_as_xyz
    x,y,z
loop_
    _atom_site_label
    _atom_site_type_symbol
    _atom_site_fract_x
    _atom_site_fract_y
    _atom_site_fract_z
    _atom_site_occupancy
    Cu1      Cu       0.05799    0.11343    0.78326    1.000
    O1       O        0.86650    0.17304    0.68610    1.000
    O2       O        0.18920    0.16186    0.58710    1.000
    O3       O        0.29410    0.05855    0.87150    1.000
    O4       O        0.68830    0.09770    0.87390    1.000
    N1       N        0.70920    0.32642    0.39530    1.000
    N2       N        0.89350    0.94341    0.16460    1.000
    C1       C        0.60000    0.31156    0.48500    1.000
    H1       H        0.45910    0.33250    0.50140    1.000
    C2       C        0.68400    0.26663    0.55550    1.000
    H2       H        0.60320    0.25790    0.61890    1.000
    C3       C        0.88700    0.23504    0.53150    1.000
    C4       C        0.00170    0.25013    0.43700    1.000
    H3       H        0.14160    0.22950    0.41860    1.000
    C5       C        0.90870    0.29555    0.37050    1.000
    H4       H        0.98580    0.30520    0.30640    1.000
    C6       C        0.98940    0.18540    0.60610    1.000
    C7       C        0.65260    0.93595    0.09940    1.000
    H5       H        0.55980    0.90400    0.11090    1.000
    C8       C        0.53350    0.97303    0.01600    1.000
    H6       H        0.36130    0.96660    0.97330    1.000
    C9       C        0.66900    0.02008    0.99490    1.000
    C10      C        0.91880    0.02705    0.06000    1.000
    H7       H        0.01830    0.05790    0.04760    1.000
    C11      C        0.02510    0.98855    0.14420    1.000
    H8       H        0.19600    0.99430    0.18880    1.000
    C12      C        0.54460    0.06266    0.90580    1.000
    Cu2      Cu       0.55799    0.61343    0.78326    1.000
    O5       O        0.36650    0.67304    0.68610    1.000
    O6       O        0.68920    0.66186    0.58710    1.000
    O7       O        0.79410    0.55855    0.87150    1.000
    O8       O        0.18830    0.59770    0.87390    1.000
    N3       N        0.20920    0.82642    0.39530    1.000
    N4       N        0.39350    0.44341    0.16460    1.000
    C13      C        0.10000    0.81156    0.48500    1.000
    H9       H        0.95910    0.83250    0.50140    1.000
    C14      C        0.18400    0.76663    0.55550    1.000
    H10      H        0.10320    0.75790    0.61890    1.000
    C15      C        0.38700    0.73504    0.53150    1.000
    C16      C        0.50170    0.75013    0.43700    1.000
    H11      H        0.64160    0.72950    0.41860    1.000
    C17      C        0.40870    0.79555    0.37050    1.000
    H12      H        0.48580    0.80520    0.30640    1.000
    C18      C        0.48940    0.68540    0.60610    1.000
    C19      C        0.15260    0.43595    0.09940    1.000
    H13      H        0.05980    0.40400    0.11090    1.000
    C20      C        0.03350    0.47303    0.01600    1.000
    H14      H        0.86130    0.46660    0.97330    1.000
    C21      C        0.16900    0.52008    0.99490    1.000
    C22      C        0.41880    0.52705    0.06000    1.000
    H15      H        0.51830    0.55790    0.04760    1.000
    C23      C        0.52510    0.48855    0.14420    1.000
    H16      H        0.69600    0.49430    0.18880    1.000
    C24      C        0.04460    0.56266    0.90580    1.000
    Cu3      Cu       0.05799    0.88657    0.28326    1.000
    O9       O        0.86650    0.82696    0.18610    1.000
    O10      O        0.18920    0.83814    0.08710    1.000
    O11      O        0.29410    0.94145    0.37150    1.000
    O12      O        0.68830    0.90230    0.37390    1.000
    N5       N        0.70920    0.67358    0.89530    1.000
    N6       N        0.89350    0.05659    0.66460    1.000
    C25      C        0.60000    0.68844    0.98500    1.000
    H17      H        0.45910    0.66750    0.00140    1.000
    C26      C        0.68400    0.73337    0.05550    1.000
    H18      H        0.60320    0.74210    0.11890    1.000
    C27      C        0.88700    0.76496    0.03150    1.000
    C28      C        0.00170    0.74987    0.93700    1.000
    H19      H        0.14160    0.77050    0.91860    1.000
    C29      C        0.90870    0.70445    0.87050    1.000
    H20      H        0.98580    0.69480    0.80640    1.000
    C30      C        0.98940    0.81460    0.10610    1.000
    C31      C        0.65260    0.06405    0.59940    1.000
    H21      H        0.55980    0.09600    0.61090    1.000
    C32      C        0.53350    0.02697    0.51600    1.000
    H22      H        0.36130    0.03340    0.47330    1.000
    C33      C        0.66900    0.97992    0.49490    1.000
    C34      C        0.91880    0.97295    0.56000    1.000
    H23      H        0.01830    0.94210    0.54760    1.000
    C35      C        0.02510    0.01145    0.64420    1.000
    H24      H        0.19600    0.00570    0.68880    1.000
    C36      C        0.54460    0.93734    0.40580    1.000
    Cu4      Cu       0.55799    0.38657    0.28326    1.000
    O13      O        0.36650    0.32696    0.18610    1.000
    O14      O        0.68920    0.33814    0.08710    1.000
    O15      O        0.79410    0.44145    0.37150    1.000
    O16      O        0.18830    0.40230    0.37390    1.000
    N7       N        0.20920    0.17358    0.89530    1.000
    N8       N        0.39350    0.55659    0.66460    1.000
    C37      C        0.10000    0.18844    0.98500    1.000
    H25      H        0.95910    0.16750    0.00140    1.000
    C38      C        0.18400    0.23337    0.05550    1.000
    H26      H        0.10320    0.24210    0.11890    1.000
    C39      C        0.38700    0.26496    0.03150    1.000
    C40      C        0.50170    0.24987    0.93700    1.000
    H27      H        0.64160    0.27050    0.91860    1.000
    C41      C        0.40870    0.20445    0.87050    1.000
    H28      H        0.48580    0.19480    0.80640    1.000
    C42      C        0.48940    0.31460    0.10610    1.000
    C43      C        0.15260    0.56405    0.59940    1.000
    H29      H        0.05980    0.59600    0.61090    1.000
    C44      C        0.03350    0.52697    0.51600    1.000
    H30      H        0.86130    0.53340    0.47330    1.000
    C45      C        0.16900    0.47992    0.49490    1.000
    C46      C        0.41880    0.47295    0.56000    1.000
    H31      H        0.51830    0.44210    0.54760    1.000
    C47      C        0.52510    0.51145    0.64420    1.000
    H32      H        0.69600    0.50570    0.68880    1.000
    C48      C        0.04460    0.43734    0.40580    1.000
