# CIF file generated by openbabel 3.1.0, see https://openbabel.org
data_I
_chemical_name_common 'image0'
_cell_length_a 11.08
_cell_length_b 16.583
_cell_length_c 16.6
_cell_angle_alpha 68.533
_cell_angle_beta 89.208
_cell_angle_gamma 89.167
_space_group_name_H-M_alt 'P 1'
_space_group_name_Hall 'P 1'
loop_
    _symmetry_equiv_pos_as_xyz
    x,y,z
loop_
    _atom_site_label
    _atom_site_type_symbol
    _atom_site_fract_x
    _atom_site_fract_y
    _atom_site_fract_z
    _atom_site_occupancy
    Ni1      Ni       0.64014    0.00459    0.49658    1.000
    Ni2      Ni       0.49827    0.81226    0.50446    1.000
    O1       O        0.35680    0.90845    0.62862    1.000
    C1       C        0.10820    0.72170    0.48720    1.000
    H1       H        0.18120    0.69350    0.48670    1.000
    C2       C        0.03790    0.52040    0.57120    1.000
    C3       C        0.00210    0.58570    0.49640    1.000
    C4       C        0.03510    0.43100    0.57610    1.000
    C5       C        0.40810    0.83610    0.66680    1.000
    C6       C        0.39510    0.79730    0.76300    1.000
    C7       C        0.57850    0.55690    0.93980    1.000
    C8       C        0.42540    0.71100    0.80840    1.000
    H2       H        0.44800    0.67610    0.77770    1.000
    C9       C        0.46060    0.58370    0.94920    1.000
    O2       O        0.85730    0.62830    0.80650    1.000
    C10      C        0.00040    0.67740    0.49210    1.000
    C11      C        0.06960    0.36540    0.65540    1.000
    H3       H        0.06600    0.30790    0.65990    1.000
    C12      C        0.07880    0.53520    0.64570    1.000
    H4       H        0.08230    0.59190    0.64380    1.000
    O3       O        0.15700    0.47900    0.79150    1.000
    C13      C        0.61870    0.47280    0.99180    1.000
    O4       O        0.93350    0.48190    0.91000    1.000
    C14      C        0.42290    0.67540    0.89770    1.000
    C15      C        0.35900    0.84850    0.80890    1.000
    H5       H        0.33940    0.90650    0.77900    1.000
    O5       O        0.31890    0.80585    0.48530    1.000
    C16      C        0.11260    0.47050    0.71850    1.000
    O6       O        0.13350    0.32280    0.80290    1.000
    C17      C        0.38700    0.72960    0.94200    1.000
    H6       H        0.38680    0.70760    0.00220    1.000
    C18      C        0.10700    0.38210    0.72410    1.000
    C19      C        0.74100    0.44700    0.98330    1.000
    H7       H        0.76850    0.39270    0.01940    1.000
    C20      C        0.66360    0.61180    0.87810    1.000
    H8       H        0.64070    0.66830    0.84490    1.000
    C21      C        0.31260    0.86730    0.95050    1.000
    C22      C        0.77540    0.58370    0.86730    1.000
    C23      C        0.81720    0.50090    0.92310    1.000
    C24      C        0.80880    0.70500    0.73500    1.000
    H9       H        0.86720    0.72420    0.68880    1.000
    H10      H        0.79210    0.75080    0.75610    1.000
    H11      H        0.73570    0.68960    0.71400    1.000
    O7       O        0.28310    0.94700    0.90650    1.000
    H12      H        0.26250    0.97110    0.93970    1.000
    C25      C        0.16790    0.56560    0.78880    1.000
    H13      H        0.22000    0.59750    0.74150    1.000
    H14      H        0.20140    0.56470    0.84210    1.000
    H15      H        0.08970    0.59290    0.78080    1.000
    O8       O        0.30090    0.83410    0.02900    1.000
    C26      C        0.97530    0.39680    0.96300    1.000
    H16      H        0.06070    0.39240    0.95480    1.000
    H17      H        0.93470    0.35430    0.94680    1.000
    H18      H        0.95840    0.38690    0.02270    1.000
    C27      C        0.35160    0.81530    0.89830    1.000
    C28      C        0.11760    0.23430    0.81540    1.000
    H19      H        0.17430    0.21790    0.77980    1.000
    H20      H        0.03690    0.22590    0.79990    1.000
    H21      H        0.13080    0.19920    0.87510    1.000
    C29      C        0.89180    0.72040    0.49380    1.000
    H22      H        0.81940    0.69160    0.49730    1.000
    C30      C        0.88960    0.80550    0.49020    1.000
    C31      C        0.99940    0.84820    0.48500    1.000
    H23      H        0.99880    0.90510    0.48290    1.000
    C32      C        0.10890    0.80730    0.48310    1.000
    O9       O        0.47010    0.79492    0.63160    1.000
    O10      O        0.50240    0.93993    0.46513    1.000
    H24      H        0.50010    0.96150    0.40170    1.000
    O11      O        0.22330    0.92800    0.47540    1.000
    C33      C        0.77100    0.84820    0.49290    1.000
    O12      O        0.76990    0.93023    0.46610    1.000
    O13      O        0.68290    0.79949    0.52400    1.000
    C34      C        0.22590    0.85060    0.48200    1.000
    Ni3      Ni       0.35986    0.99541    0.50342    1.000
    Ni4      Ni       0.50173    0.18774    0.49554    1.000
    O14      O        0.64320    0.09155    0.37138    1.000
    C35      C        0.89180    0.27830    0.51280    1.000
    H25      H        0.81880    0.30650    0.51330    1.000
    C36      C        0.96210    0.47960    0.42880    1.000
    C37      C        0.99790    0.41430    0.50360    1.000
    C38      C        0.96490    0.56900    0.42390    1.000
    C39      C        0.59190    0.16390    0.33320    1.000
    C40      C        0.60490    0.20270    0.23700    1.000
    C41      C        0.42150    0.44310    0.06020    1.000
    C42      C        0.57460    0.28900    0.19160    1.000
    H26      H        0.55200    0.32390    0.22230    1.000
    C43      C        0.53940    0.41630    0.05080    1.000
    O15      O        0.14270    0.37170    0.19350    1.000
    C44      C        0.99960    0.32260    0.50790    1.000
    C45      C        0.93040    0.63460    0.34460    1.000
    H27      H        0.93400    0.69210    0.34010    1.000
    C46      C        0.92120    0.46480    0.35430    1.000
    H28      H        0.91770    0.40810    0.35620    1.000
    O16      O        0.84300    0.52100    0.20850    1.000
    C47      C        0.38130    0.52720    0.00820    1.000
    O17      O        0.06650    0.51810    0.09000    1.000
    C48      C        0.57710    0.32460    0.10230    1.000
    C49      C        0.64100    0.15150    0.19110    1.000
    H29      H        0.66060    0.09350    0.22100    1.000
    O18      O        0.68110    0.19415    0.51470    1.000
    C50      C        0.88740    0.52950    0.28150    1.000
    O19      O        0.86650    0.67720    0.19710    1.000
    C51      C        0.61300    0.27040    0.05800    1.000
    H30      H        0.61320    0.29240    0.99780    1.000
    C52      C        0.89300    0.61790    0.27590    1.000
    C53      C        0.25900    0.55300    0.01670    1.000
    H31      H        0.23150    0.60730    0.98060    1.000
    C54      C        0.33640    0.38820    0.12190    1.000
    H32      H        0.35930    0.33170    0.15510    1.000
    C55      C        0.68740    0.13270    0.04950    1.000
    C56      C        0.22460    0.41630    0.13270    1.000
    C57      C        0.18280    0.49910    0.07690    1.000
    C58      C        0.19120    0.29500    0.26500    1.000
    H33      H        0.13280    0.27580    0.31120    1.000
    H34      H        0.20790    0.24920    0.24390    1.000
    H35      H        0.26430    0.31040    0.28600    1.000
    O20      O        0.71690    0.05300    0.09350    1.000
    H36      H        0.73750    0.02890    0.06030    1.000
    C59      C        0.83210    0.43440    0.21120    1.000
    H37      H        0.78000    0.40250    0.25850    1.000
    H38      H        0.79860    0.43530    0.15790    1.000
    H39      H        0.91030    0.40710    0.21920    1.000
    O21      O        0.69910    0.16590    0.97100    1.000
    C60      C        0.02470    0.60320    0.03700    1.000
    H40      H        0.93930    0.60760    0.04520    1.000
    H41      H        0.06530    0.64570    0.05320    1.000
    H42      H        0.04160    0.61310    0.97730    1.000
    C61      C        0.64840    0.18470    0.10170    1.000
    C62      C        0.88240    0.76570    0.18460    1.000
    H43      H        0.82570    0.78210    0.22020    1.000
    H44      H        0.96310    0.77410    0.20010    1.000
    H45      H        0.86920    0.80080    0.12490    1.000
    C63      C        0.10820    0.27960    0.50620    1.000
    H46      H        0.18060    0.30840    0.50270    1.000
    C64      C        0.11040    0.19450    0.50980    1.000
    C65      C        0.00060    0.15180    0.51500    1.000
    H47      H        0.00120    0.09490    0.51710    1.000
    C66      C        0.89110    0.19270    0.51690    1.000
    O22      O        0.52990    0.20508    0.36840    1.000
    O23      O        0.49760    0.06007    0.53487    1.000
    H48      H        0.49990    0.03850    0.59830    1.000
    O24      O        0.77670    0.07200    0.52460    1.000
    C67      C        0.22900    0.15180    0.50710    1.000
    O25      O        0.23010    0.06977    0.53390    1.000
    O26      O        0.31710    0.20051    0.47600    1.000
    C68      C        0.77410    0.14940    0.51800    1.000
