# CIF file generated by openbabel 3.1.0, see https://openbabel.org
data_I
_chemical_name_common 'image0'
_cell_length_a 16.6324
_cell_length_b 6.3219
_cell_length_c 11.0725
_cell_angle_alpha 90
_cell_angle_beta 94.362
_cell_angle_gamma 90
_space_group_name_H-M_alt 'P 1'
_space_group_name_Hall 'P 1'
loop_
    _symmetry_equiv_pos_as_xyz
    x,y,z
loop_
    _atom_site_label
    _atom_site_type_symbol
    _atom_site_fract_x
    _atom_site_fract_y
    _atom_site_fract_z
    _atom_site_occupancy
    P1       P        0.55710    0.57110    0.66910    1.000
    O1       O        0.63980    0.80640    0.40760    1.000
    O2       O        0.78590    0.30530    0.15020    1.000
    O3       O        0.55670    0.81910    0.67530    1.000
    P2       P        0.05710    0.07110    0.66910    1.000
    O4       O        0.13980    0.30640    0.40760    1.000
    O5       O        0.28590    0.80530    0.15020    1.000
    O6       O        0.05670    0.31910    0.67530    1.000
    P3       P        0.44290    0.57110    0.33090    1.000
    O7       O        0.36020    0.80640    0.59240    1.000
    O8       O        0.21410    0.30530    0.84980    1.000
    O9       O        0.44330    0.81910    0.32470    1.000
    P4       P        0.94290    0.07110    0.33090    1.000
    O10      O        0.86020    0.30640    0.59240    1.000
    O11      O        0.71410    0.80530    0.84980    1.000
    O12      O        0.94330    0.31910    0.32470    1.000
    P5       P        0.44290    0.42890    0.33090    1.000
    O13      O        0.36020    0.19360    0.59240    1.000
    O14      O        0.21410    0.69470    0.84980    1.000
    O15      O        0.44330    0.18090    0.32470    1.000
    P6       P        0.94290    0.92890    0.33090    1.000
    O16      O        0.86020    0.69360    0.59240    1.000
    O17      O        0.71410    0.19470    0.84980    1.000
    O18      O        0.94330    0.68090    0.32470    1.000
    P7       P        0.55710    0.42890    0.66910    1.000
    O19      O        0.63980    0.19360    0.40760    1.000
    O20      O        0.78590    0.69470    0.15020    1.000
    O21      O        0.55670    0.18090    0.67530    1.000
    P8       P        0.05710    0.92890    0.66910    1.000
    O22      O        0.13980    0.69360    0.40760    1.000
    O23      O        0.28590    0.19470    0.15020    1.000
    O24      O        0.05670    0.68090    0.67530    1.000
    Ti1      Ti       0.64110    0.50000    0.39960    1.000
    Ti2      Ti       0.71670    0.50000    0.85040    1.000
    P9       P        0.73180    0.50000    0.13880    1.000
    F1       F        0.82340    0.50000    0.91040    1.000
    O25      O        0.59380    0.50000    0.55640    1.000
    O26      O        0.47050    0.50000    0.67300    1.000
    O27      O        0.67190    0.50000    0.23760    1.000
    O28      O        0.68250    0.50000    0.01580    1.000
    O29      O        0.60400    0.50000    0.78560    1.000
    Ti3      Ti       0.14110    0.00000    0.39960    1.000
    Ti4      Ti       0.21670    0.00000    0.85040    1.000
    P10      P        0.23180    0.00000    0.13880    1.000
    F2       F        0.32340    0.00000    0.91040    1.000
    O30      O        0.09380    0.00000    0.55640    1.000
    O31      O        0.97050    0.00000    0.67300    1.000
    O32      O        0.17190    0.00000    0.23760    1.000
    O33      O        0.18250    0.00000    0.01580    1.000
    O34      O        0.10400    0.00000    0.78560    1.000
    Ti5      Ti       0.35890    0.50000    0.60040    1.000
    Ti6      Ti       0.28330    0.50000    0.14960    1.000
    P11      P        0.26820    0.50000    0.86120    1.000
    F3       F        0.17660    0.50000    0.08960    1.000
    O35      O        0.40620    0.50000    0.44360    1.000
    O36      O        0.52950    0.50000    0.32700    1.000
    O37      O        0.32810    0.50000    0.76240    1.000
    O38      O        0.31750    0.50000    0.98420    1.000
    O39      O        0.39600    0.50000    0.21440    1.000
    Ti7      Ti       0.85890    0.00000    0.60040    1.000
    Ti8      Ti       0.78330    0.00000    0.14960    1.000
    P12      P        0.76820    0.00000    0.86120    1.000
    F4       F        0.67660    0.00000    0.08960    1.000
    O40      O        0.90620    0.00000    0.44360    1.000
    O41      O        0.02950    0.00000    0.32700    1.000
    O42      O        0.82810    0.00000    0.76240    1.000
    O43      O        0.81750    0.00000    0.98420    1.000
    O44      O        0.89600    0.00000    0.21440    1.000
    P13      P        0.69570    0.00000    0.41360    1.000
    O45      O        0.74920    0.00000    0.53230    1.000
    O46      O        0.74940    0.00000    0.30930    1.000
    P14      P        0.19570    0.50000    0.41360    1.000
    O47      O        0.24920    0.50000    0.53230    1.000
    O48      O        0.24940    0.50000    0.30930    1.000
    P15      P        0.30430    0.00000    0.58640    1.000
    O49      O        0.25080    0.00000    0.46770    1.000
    O50      O        0.25060    0.00000    0.69070    1.000
    P16      P        0.80430    0.50000    0.58640    1.000
    O51      O        0.75080    0.50000    0.46770    1.000
    O52      O        0.75060    0.50000    0.69070    1.000
