# CIF file generated by openbabel 3.1.0, see https://openbabel.org
data_I
_chemical_name_common 'image0'
_cell_length_a 9.4951
_cell_length_b 12.5595
_cell_length_c 18.9191
_cell_angle_alpha 106.107
_cell_angle_beta 98.869
_cell_angle_gamma 100.65
_space_group_name_H-M_alt 'P 1'
_space_group_name_Hall 'P 1'
loop_
    _symmetry_equiv_pos_as_xyz
    x,y,z
loop_
    _atom_site_label
    _atom_site_type_symbol
    _atom_site_fract_x
    _atom_site_fract_y
    _atom_site_fract_z
    _atom_site_occupancy
    Yb1      Yb       0.23413    0.01781    0.00391    1.000
    O1       O        0.45780    0.02950    0.08770    1.000
    O2       O        0.68900    0.02040    0.11880    1.000
    O3       O        0.00240    0.89120    0.92430    1.000
    N1       N        0.56780    0.15890    0.36730    1.000
    O4       O        0.76350    0.81880    0.88370    1.000
    N2       N        0.00540    0.15290    0.68190    1.000
    O5       O        0.10650    0.12710    0.93880    1.000
    O6       O        0.86050    0.07110    0.90500    1.000
    N3       N        0.95450    0.61040    0.67270    1.000
    C1       C        0.92410    0.23230    0.57840    1.000
    C2       C        0.89160    0.82320    0.87700    1.000
    C3       C        0.56590    0.07640    0.21700    1.000
    C4       C        0.90550    0.41910    0.57330    1.000
    C5       C        0.56990    0.03790    0.13400    1.000
    C6       C        0.98080    0.34850    0.60220    1.000
    C7       C        0.44040    0.09640    0.24040    1.000
    H1       H        0.35220    0.08220    0.20420    1.000
    C8       C        0.71100    0.25350    0.50160    1.000
    C9       C        0.69240    0.09640    0.27120    1.000
    H2       H        0.78000    0.08120    0.25660    1.000
    C10      C        0.44220    0.13670    0.31580    1.000
    H3       H        0.35490    0.14910    0.33180    1.000
    C11      C        0.77010    0.37200    0.52250    1.000
    C12      C        0.69000    0.13850    0.34660    1.000
    H4       H        0.77660    0.15290    0.38400    1.000
    C13      C        0.91620    0.74250    0.80540    1.000
    C14      C        0.99130    0.12650    0.81910    1.000
    C15      C        0.78650    0.18300    0.52840    1.000
    C16      C        0.87870    0.14780    0.70440    1.000
    H5       H        0.79450    0.15330    0.67250    1.000
    C17      C        0.01170    0.15520    0.60260    1.000
    H6       H        0.11530    0.18140    0.60020    1.000
    H7       H        0.97360    0.07670    0.56700    1.000
    C18      C        0.12200    0.13350    0.79460    1.000
    H8       H        0.20800    0.13000    0.82620    1.000
    C19      C        0.86910    0.13480    0.77320    1.000
    H9       H        0.77870    0.13160    0.78910    1.000
    C20      C        0.12450    0.40170    0.65950    1.000
    H10      H        0.16370    0.34170    0.67350    1.000
    H11      H        0.10800    0.45500    0.70450    1.000
    H12      H        0.19500    0.44290    0.63770    1.000
    C21      C        0.05540    0.73980    0.79510    1.000
    H13      H        0.13850    0.78400    0.83390    1.000
    C22      C        0.79770    0.67580    0.74990    1.000
    H14      H        0.70110    0.67590    0.75750    1.000
    C23      C        0.07280    0.67240    0.72790    1.000
    H15      H        0.16860    0.66940    0.72010    1.000
    C24      C        0.81800    0.60940    0.68380    1.000
    H16      H        0.73560    0.56240    0.64550    1.000
    C25      C        0.97470    0.54530    0.59710    1.000
    H17      H        0.08110    0.55630    0.59830    1.000
    H18      H        0.93170    0.57720    0.55890    1.000
    C26      C        0.98560    0.10750    0.89470    1.000
    C27      C        0.12820    0.14530    0.72510    1.000
    H19      H        0.21700    0.14820    0.70760    1.000
    C28      C        0.56100    0.20210    0.45020    1.000
    H20      H        0.50240    0.26030    0.45690    1.000
    H21      H        0.51030    0.13790    0.46480    1.000
    C29      C        0.68490    0.44410    0.48870    1.000
    H22      H        0.60420    0.45670    0.51420    1.000
    H23      H        0.64500    0.40430    0.43480    1.000
    H24      H        0.75070    0.51780    0.49530    1.000
    C30      C        0.72540    0.05570    0.50330    1.000
    H25      H        0.62610    0.03660    0.47210    1.000
    H26      H        0.72170    0.03010    0.54750    1.000
    H27      H        0.78850    0.01760    0.47380    1.000
    Yb2      Yb       0.76587    0.98219    0.99609    1.000
    O7       O        0.54220    0.97050    0.91230    1.000
    O8       O        0.31100    0.97960    0.88120    1.000
    O9       O        0.99760    0.10880    0.07570    1.000
    N4       N        0.43220    0.84110    0.63270    1.000
    O10      O        0.23650    0.18120    0.11630    1.000
    N5       N        0.99460    0.84710    0.31810    1.000
    O11      O        0.89350    0.87290    0.06120    1.000
    O12      O        0.13950    0.92890    0.09500    1.000
    N6       N        0.04550    0.38960    0.32730    1.000
    C31      C        0.07590    0.76770    0.42160    1.000
    C32      C        0.10840    0.17680    0.12300    1.000
    C33      C        0.43410    0.92360    0.78300    1.000
    C34      C        0.09450    0.58090    0.42670    1.000
    C35      C        0.43010    0.96210    0.86600    1.000
    C36      C        0.01920    0.65150    0.39780    1.000
    C37      C        0.55960    0.90360    0.75960    1.000
    H28      H        0.64780    0.91780    0.79580    1.000
    C38      C        0.28900    0.74650    0.49840    1.000
    C39      C        0.30760    0.90360    0.72880    1.000
    H29      H        0.22000    0.91880    0.74340    1.000
    C40      C        0.55780    0.86330    0.68420    1.000
    H30      H        0.64510    0.85090    0.66820    1.000
    C41      C        0.22990    0.62800    0.47750    1.000
    C42      C        0.31000    0.86150    0.65340    1.000
    H31      H        0.22340    0.84710    0.61600    1.000
    C43      C        0.08380    0.25750    0.19460    1.000
    C44      C        0.00870    0.87350    0.18090    1.000
    C45      C        0.21350    0.81700    0.47160    1.000
    C46      C        0.12130    0.85220    0.29560    1.000
    H32      H        0.20550    0.84670    0.32750    1.000
    C47      C        0.98830    0.84480    0.39740    1.000
    H33      H        0.88470    0.81860    0.39980    1.000
    H34      H        0.02640    0.92330    0.43300    1.000
    C48      C        0.87800    0.86650    0.20540    1.000
    H35      H        0.79200    0.87000    0.17380    1.000
    C49      C        0.13090    0.86520    0.22680    1.000
    H36      H        0.22130    0.86840    0.21090    1.000
    C50      C        0.87550    0.59830    0.34050    1.000
    H37      H        0.83630    0.65830    0.32650    1.000
    H38      H        0.89200    0.54500    0.29550    1.000
    H39      H        0.80500    0.55710    0.36230    1.000
    C51      C        0.94460    0.26020    0.20490    1.000
    H40      H        0.86150    0.21600    0.16610    1.000
    C52      C        0.20230    0.32420    0.25010    1.000
    H41      H        0.29890    0.32410    0.24250    1.000
    C53      C        0.92720    0.32760    0.27210    1.000
    H42      H        0.83140    0.33060    0.27990    1.000
    C54      C        0.18200    0.39060    0.31620    1.000
    H43      H        0.26440    0.43760    0.35450    1.000
    C55      C        0.02530    0.45470    0.40290    1.000
    H44      H        0.91890    0.44370    0.40170    1.000
    H45      H        0.06830    0.42280    0.44110    1.000
    C56      C        0.01440    0.89250    0.10530    1.000
    C57      C        0.87180    0.85470    0.27490    1.000
    H46      H        0.78300    0.85180    0.29240    1.000
    C58      C        0.43900    0.79790    0.54980    1.000
    H47      H        0.49760    0.73970    0.54310    1.000
    H48      H        0.48970    0.86210    0.53520    1.000
    C59      C        0.31510    0.55590    0.51130    1.000
    H49      H        0.39580    0.54330    0.48580    1.000
    H50      H        0.35500    0.59570    0.56520    1.000
    H51      H        0.24930    0.48220    0.50470    1.000
    C60      C        0.27460    0.94430    0.49670    1.000
    H52      H        0.37390    0.96340    0.52790    1.000
    H53      H        0.27830    0.96990    0.45250    1.000
    H54      H        0.21150    0.98240    0.52620    1.000
