# CIF file generated by openbabel 3.1.0, see https://openbabel.org
data_I
_chemical_name_common 'image0'
_cell_length_a 17.28
_cell_length_b 14.802
_cell_length_c 14.365
_cell_angle_alpha 90
_cell_angle_beta 116.308
_cell_angle_gamma 90
_space_group_name_H-M_alt 'P 1'
_space_group_name_Hall 'P 1'
loop_
    _symmetry_equiv_pos_as_xyz
    x,y,z
loop_
    _atom_site_label
    _atom_site_type_symbol
    _atom_site_fract_x
    _atom_site_fract_y
    _atom_site_fract_z
    _atom_site_occupancy
    Co1      Co       0.19139    0.48307    0.15761    1.000
    Co2      Co       0.20085    0.49848    0.41458    1.000
    O1       O        0.51360    0.41850    0.56060    1.000
    O2       O        0.12650    0.48320    0.99470    1.000
    N1       N        0.59700    0.42780    0.62030    1.000
    N2       N        0.04170    0.47370    0.93980    1.000
    C1       C        0.64670    0.35190    0.64660    1.000
    H1       H        0.62180    0.29540    0.62390    1.000
    C2       C        0.73500    0.35970    0.70770    1.000
    H2       H        0.76960    0.30840    0.72330    1.000
    C3       C        0.77310    0.44410    0.74620    1.000
    C4       C        0.71740    0.51730    0.71810    1.000
    H3       H        0.73980    0.57450    0.74120    1.000
    C5       C        0.63100    0.50820    0.65760    1.000
    H4       H        0.59550    0.55870    0.64220    1.000
    C6       C        0.00780    0.39120    0.91450    1.000
    H5       H        0.04390    0.34120    0.93860    1.000
    C7       C        0.92140    0.37810    0.85390    1.000
    H6       H        0.89870    0.32000    0.83920    1.000
    C8       C        0.86690    0.45490    0.81370    1.000
    C9       C        0.90470    0.53980    0.84120    1.000
    H7       H        0.87120    0.59140    0.81590    1.000
    C10      C        0.99120    0.54780    0.90540    1.000
    H8       H        0.01540    0.60480    0.92560    1.000
    O3       O        0.13980    0.60710    0.32360    1.000
    O4       O        0.10760    0.58190    0.15740    1.000
    O5       O        0.79470    0.91350    0.01100    1.000
    O6       O        0.77240    0.88300    0.15000    1.000
    C11      C        0.97460    0.91680    0.27630    1.000
    H9       H        0.92820    0.95650    0.25460    1.000
    C12      C        0.04960    0.93880    0.35950    1.000
    H10      H        0.05390    0.99270    0.39470    1.000
    C13      C        0.12040    0.88030    0.39230    1.000
    H11      H        0.17200    0.89660    0.44840    1.000
    C14      C        0.11530    0.79890    0.34330    1.000
    H12      H        0.16270    0.76030    0.36750    1.000
    C15      C        0.03640    0.77310    0.25420    1.000
    C16      C        0.96520    0.83310    0.22060    1.000
    C17      C        0.88730    0.81080    0.13280    1.000
    C18      C        0.88320    0.73390    0.07810    1.000
    H13      H        0.83270    0.71970    0.01940    1.000
    C19      C        0.95410    0.67720    0.10980    1.000
    H14      H        0.95030    0.62590    0.07040    1.000
    C20      C        0.02910    0.69360    0.19670    1.000
    C21      C        0.09890    0.62090    0.22890    1.000
    C22      C        0.81160    0.87500    0.09510    1.000
    O7       O        0.26640    0.39220    0.50660    1.000
    O8       O        0.28120    0.41970    0.66690    1.000
    O9       O        0.61050    0.08940    0.81840    1.000
    O10      O        0.60870    0.11280    0.66540    1.000
    C23      C        0.40570    0.06860    0.58930    1.000
    H15      H        0.45160    0.02830    0.60920    1.000
    C24      C        0.32450    0.04080    0.52180    1.000
    H16      H        0.31500    0.98140    0.49820    1.000
    C25      C        0.25550    0.10230    0.48830    1.000
    H17      H        0.20100    0.08420    0.43980    1.000
    C26      C        0.26760    0.18750    0.52590    1.000
    H18      H        0.22100    0.22690    0.50380    1.000
    C27      C        0.34850    0.21710    0.59640    1.000
    C28      C        0.42070    0.15580    0.62850    1.000
    C29      C        0.50420    0.18410    0.70360    1.000
    C30      C        0.51569    0.26569    0.75349    1.000
    H19      H        0.56890    0.28060    0.80760    1.000
    C31      C        0.44479    0.32736    0.72116    1.000
    H20      H        0.45280    0.38300    0.75420    1.000
    C32      C        0.36570    0.30661    0.64309    1.000
    C33      C        0.29887    0.37710    0.60317    1.000
    C34      C        0.58147    0.12385    0.73145    1.000
    O11      O        0.27541    0.47725    0.32516    1.000
    H21      H        0.31970    0.52330    0.34380    1.000
    H22      H        0.30370    0.41880    0.34270    1.000
    Co3      Co       0.69139    0.98307    0.15761    1.000
    Co4      Co       0.70085    0.99848    0.41458    1.000
    O12      O        0.01360    0.91850    0.56060    1.000
    O13      O        0.62650    0.98320    0.99470    1.000
    N3       N        0.09700    0.92780    0.62030    1.000
    N4       N        0.54170    0.97370    0.93980    1.000
    C35      C        0.14670    0.85190    0.64660    1.000
    H23      H        0.12180    0.79540    0.62390    1.000
    C36      C        0.23500    0.85970    0.70770    1.000
    H24      H        0.26960    0.80840    0.72330    1.000
    C37      C        0.27310    0.94410    0.74620    1.000
    C38      C        0.21740    0.01730    0.71810    1.000
    H25      H        0.23980    0.07450    0.74120    1.000
    C39      C        0.13100    0.00820    0.65760    1.000
    H26      H        0.09550    0.05870    0.64220    1.000
    C40      C        0.50780    0.89120    0.91450    1.000
    H27      H        0.54390    0.84120    0.93860    1.000
    C41      C        0.42140    0.87810    0.85390    1.000
    H28      H        0.39870    0.82000    0.83920    1.000
    C42      C        0.36690    0.95490    0.81370    1.000
    C43      C        0.40470    0.03980    0.84120    1.000
    H29      H        0.37120    0.09140    0.81590    1.000
    C44      C        0.49120    0.04780    0.90540    1.000
    H30      H        0.51540    0.10480    0.92560    1.000
    O14      O        0.63980    0.10710    0.32360    1.000
    O15      O        0.60760    0.08190    0.15740    1.000
    O16      O        0.29470    0.41350    0.01100    1.000
    O17      O        0.27240    0.38300    0.15000    1.000
    C45      C        0.47460    0.41680    0.27630    1.000
    H31      H        0.42820    0.45650    0.25460    1.000
    C46      C        0.54960    0.43880    0.35950    1.000
    H32      H        0.55390    0.49270    0.39470    1.000
    C47      C        0.62040    0.38030    0.39230    1.000
    H33      H        0.67200    0.39660    0.44840    1.000
    C48      C        0.61530    0.29890    0.34330    1.000
    H34      H        0.66270    0.26030    0.36750    1.000
    C49      C        0.53640    0.27310    0.25420    1.000
    C50      C        0.46520    0.33310    0.22060    1.000
    C51      C        0.38730    0.31080    0.13280    1.000
    C52      C        0.38320    0.23390    0.07810    1.000
    H35      H        0.33270    0.21970    0.01940    1.000
    C53      C        0.45410    0.17720    0.10980    1.000
    H36      H        0.45030    0.12590    0.07040    1.000
    C54      C        0.52910    0.19360    0.19670    1.000
    C55      C        0.59890    0.12090    0.22890    1.000
    C56      C        0.31160    0.37500    0.09510    1.000
    O18      O        0.76640    0.89220    0.50660    1.000
    O19      O        0.78120    0.91970    0.66690    1.000
    O20      O        0.11050    0.58940    0.81840    1.000
    O21      O        0.10870    0.61280    0.66540    1.000
    C57      C        0.90570    0.56860    0.58930    1.000
    H37      H        0.95160    0.52830    0.60920    1.000
    C58      C        0.82450    0.54080    0.52180    1.000
    H38      H        0.81500    0.48140    0.49820    1.000
    C59      C        0.75550    0.60230    0.48830    1.000
    H39      H        0.70100    0.58420    0.43980    1.000
    C60      C        0.76760    0.68750    0.52590    1.000
    H40      H        0.72100    0.72690    0.50380    1.000
    C61      C        0.84850    0.71710    0.59640    1.000
    C62      C        0.92070    0.65580    0.62850    1.000
    C63      C        0.00420    0.68410    0.70360    1.000
    C64      C        0.01569    0.76569    0.75349    1.000
    H41      H        0.06890    0.78060    0.80760    1.000
    C65      C        0.94479    0.82736    0.72116    1.000
    H42      H        0.95280    0.88300    0.75420    1.000
    C66      C        0.86570    0.80661    0.64309    1.000
    C67      C        0.79887    0.87710    0.60317    1.000
    C68      C        0.08147    0.62385    0.73145    1.000
    O22      O        0.77541    0.97725    0.32516    1.000
    H43      H        0.81970    0.02330    0.34380    1.000
    H44      H        0.80370    0.91880    0.34270    1.000
    Co5      Co       0.19139    0.51693    0.65761    1.000
    Co6      Co       0.20085    0.50152    0.91458    1.000
    O23      O        0.51360    0.58150    0.06060    1.000
    O24      O        0.12650    0.51680    0.49470    1.000
    N5       N        0.59700    0.57220    0.12030    1.000
    N6       N        0.04170    0.52630    0.43980    1.000
    C69      C        0.64670    0.64810    0.14660    1.000
    H45      H        0.62180    0.70460    0.12390    1.000
    C70      C        0.73500    0.64030    0.20770    1.000
    H46      H        0.76960    0.69160    0.22330    1.000
    C71      C        0.77310    0.55590    0.24620    1.000
    C72      C        0.71740    0.48270    0.21810    1.000
    H47      H        0.73980    0.42550    0.24120    1.000
    C73      C        0.63100    0.49180    0.15760    1.000
    H48      H        0.59550    0.44130    0.14220    1.000
    C74      C        0.00780    0.60880    0.41450    1.000
    H49      H        0.04390    0.65880    0.43860    1.000
    C75      C        0.92140    0.62190    0.35390    1.000
    H50      H        0.89870    0.68000    0.33920    1.000
    C76      C        0.86690    0.54510    0.31370    1.000
    C77      C        0.90470    0.46020    0.34120    1.000
    H51      H        0.87120    0.40860    0.31590    1.000
    C78      C        0.99120    0.45220    0.40540    1.000
    H52      H        0.01540    0.39520    0.42560    1.000
    O25      O        0.13980    0.39290    0.82360    1.000
    O26      O        0.10760    0.41810    0.65740    1.000
    O27      O        0.79470    0.08650    0.51100    1.000
    O28      O        0.77240    0.11700    0.65000    1.000
    C79      C        0.97460    0.08320    0.77630    1.000
    H53      H        0.92820    0.04350    0.75460    1.000
    C80      C        0.04960    0.06120    0.85950    1.000
    H54      H        0.05390    0.00730    0.89470    1.000
    C81      C        0.12040    0.11970    0.89230    1.000
    H55      H        0.17200    0.10340    0.94840    1.000
    C82      C        0.11530    0.20110    0.84330    1.000
    H56      H        0.16270    0.23970    0.86750    1.000
    C83      C        0.03640    0.22690    0.75420    1.000
    C84      C        0.96520    0.16690    0.72060    1.000
    C85      C        0.88730    0.18920    0.63280    1.000
    C86      C        0.88320    0.26610    0.57810    1.000
    H57      H        0.83270    0.28030    0.51940    1.000
    C87      C        0.95410    0.32280    0.60980    1.000
    H58      H        0.95030    0.37410    0.57040    1.000
    C88      C        0.02910    0.30640    0.69670    1.000
    C89      C        0.09890    0.37910    0.72890    1.000
    C90      C        0.81160    0.12500    0.59510    1.000
    O29      O        0.26640    0.60780    0.00660    1.000
    O30      O        0.28120    0.58030    0.16690    1.000
    O31      O        0.61050    0.91060    0.31840    1.000
    O32      O        0.60870    0.88720    0.16540    1.000
    C91      C        0.40570    0.93140    0.08930    1.000
    H59      H        0.45160    0.97170    0.10920    1.000
    C92      C        0.32450    0.95920    0.02180    1.000
    H60      H        0.31500    0.01860    0.99820    1.000
    C93      C        0.25550    0.89770    0.98830    1.000
    H61      H        0.20100    0.91580    0.93980    1.000
    C94      C        0.26760    0.81250    0.02590    1.000
    H62      H        0.22100    0.77310    0.00380    1.000
    C95      C        0.34850    0.78290    0.09640    1.000
    C96      C        0.42070    0.84420    0.12850    1.000
    C97      C        0.50420    0.81590    0.20360    1.000
    C98      C        0.51569    0.73431    0.25349    1.000
    H63      H        0.56890    0.71940    0.30760    1.000
    C99      C        0.44479    0.67264    0.22116    1.000
    H64      H        0.45280    0.61700    0.25420    1.000
    C100     C        0.36570    0.69339    0.14309    1.000
    C101     C        0.29887    0.62290    0.10317    1.000
    C102     C        0.58147    0.87615    0.23145    1.000
    O33      O        0.27541    0.52275    0.82516    1.000
    H65      H        0.31970    0.47670    0.84380    1.000
    H66      H        0.30370    0.58120    0.84270    1.000
    Co7      Co       0.69139    0.01693    0.65761    1.000
    Co8      Co       0.70085    0.00152    0.91458    1.000
    O34      O        0.01360    0.08150    0.06060    1.000
    O35      O        0.62650    0.01680    0.49470    1.000
    N7       N        0.09700    0.07220    0.12030    1.000
    N8       N        0.54170    0.02630    0.43980    1.000
    C103     C        0.14670    0.14810    0.14660    1.000
    H67      H        0.12180    0.20460    0.12390    1.000
    C104     C        0.23500    0.14030    0.20770    1.000
    H68      H        0.26960    0.19160    0.22330    1.000
    C105     C        0.27310    0.05590    0.24620    1.000
    C106     C        0.21740    0.98270    0.21810    1.000
    H69      H        0.23980    0.92550    0.24120    1.000
    C107     C        0.13100    0.99180    0.15760    1.000
    H70      H        0.09550    0.94130    0.14220    1.000
    C108     C        0.50780    0.10880    0.41450    1.000
    H71      H        0.54390    0.15880    0.43860    1.000
    C109     C        0.42140    0.12190    0.35390    1.000
    H72      H        0.39870    0.18000    0.33920    1.000
    C110     C        0.36690    0.04510    0.31370    1.000
    C111     C        0.40470    0.96020    0.34120    1.000
    H73      H        0.37120    0.90860    0.31590    1.000
    C112     C        0.49120    0.95220    0.40540    1.000
    H74      H        0.51540    0.89520    0.42560    1.000
    O36      O        0.63980    0.89290    0.82360    1.000
    O37      O        0.60760    0.91810    0.65740    1.000
    O38      O        0.29470    0.58650    0.51100    1.000
    O39      O        0.27240    0.61700    0.65000    1.000
    C113     C        0.47460    0.58320    0.77630    1.000
    H75      H        0.42820    0.54350    0.75460    1.000
    C114     C        0.54960    0.56120    0.85950    1.000
    H76      H        0.55390    0.50730    0.89470    1.000
    C115     C        0.62040    0.61970    0.89230    1.000
    H77      H        0.67200    0.60340    0.94840    1.000
    C116     C        0.61530    0.70110    0.84330    1.000
    H78      H        0.66270    0.73970    0.86750    1.000
    C117     C        0.53640    0.72690    0.75420    1.000
    C118     C        0.46520    0.66690    0.72060    1.000
    C119     C        0.38730    0.68920    0.63280    1.000
    C120     C        0.38320    0.76610    0.57810    1.000
    H79      H        0.33270    0.78030    0.51940    1.000
    C121     C        0.45410    0.82280    0.60980    1.000
    H80      H        0.45030    0.87410    0.57040    1.000
    C122     C        0.52910    0.80640    0.69670    1.000
    C123     C        0.59890    0.87910    0.72890    1.000
    C124     C        0.31160    0.62500    0.59510    1.000
    O40      O        0.76640    0.10780    0.00660    1.000
    O41      O        0.78120    0.08030    0.16690    1.000
    O42      O        0.11050    0.41060    0.31840    1.000
    O43      O        0.10870    0.38720    0.16540    1.000
    C125     C        0.90570    0.43140    0.08930    1.000
    H81      H        0.95160    0.47170    0.10920    1.000
    C126     C        0.82450    0.45920    0.02180    1.000
    H82      H        0.81500    0.51860    0.99820    1.000
    C127     C        0.75550    0.39770    0.98830    1.000
    H83      H        0.70100    0.41580    0.93980    1.000
    C128     C        0.76760    0.31250    0.02590    1.000
    H84      H        0.72100    0.27310    0.00380    1.000
    C129     C        0.84850    0.28290    0.09640    1.000
    C130     C        0.92070    0.34420    0.12850    1.000
    C131     C        0.00420    0.31590    0.20360    1.000
    C132     C        0.01569    0.23431    0.25349    1.000
    H85      H        0.06890    0.21940    0.30760    1.000
    C133     C        0.94479    0.17264    0.22116    1.000
    H86      H        0.95280    0.11700    0.25420    1.000
    C134     C        0.86570    0.19339    0.14309    1.000
    C135     C        0.79887    0.12290    0.10317    1.000
    C136     C        0.08147    0.37615    0.23145    1.000
    O44      O        0.77541    0.02275    0.82516    1.000
    H87      H        0.81970    0.97670    0.84380    1.000
    H88      H        0.80370    0.08120    0.84270    1.000
