# CIF file generated by openbabel 3.1.0, see https://openbabel.org
data_I
_chemical_name_common 'image0'
_cell_length_a 10.8609
_cell_length_b 14.3088
_cell_length_c 17.0198
_cell_angle_alpha 90
_cell_angle_beta 105.94
_cell_angle_gamma 90
_space_group_name_H-M_alt 'P 1'
_space_group_name_Hall 'P 1'
loop_
    _symmetry_equiv_pos_as_xyz
    x,y,z
loop_
    _atom_site_label
    _atom_site_type_symbol
    _atom_site_fract_x
    _atom_site_fract_y
    _atom_site_fract_z
    _atom_site_occupancy
    Mg1      Mg       0.94962    0.47079    0.90853    1.000
    Mg2      Mg       0.24975    0.59083    0.99951    1.000
    Mg3      Mg       0.45195    0.53112    0.90990    1.000
    N1       N        0.87518    0.56741    0.80406    1.000
    O1       O        0.76937    0.50952    0.91653    1.000
    O2       O        0.58787    0.58620    0.86065    1.000
    O3       O        0.64560    0.85168    0.66160    1.000
    O4       O        0.76514    0.80290    0.58131    1.000
    C1       C        0.76366    0.60801    0.80495    1.000
    C2       C        0.70972    0.68201    0.75439    1.000
    H1       H        0.63100    0.70910    0.75860    1.000
    C3       C        0.77278    0.71441    0.69874    1.000
    C4       C        0.88533    0.67038    0.69481    1.000
    H2       H        0.92800    0.68820    0.65730    1.000
    C5       C        0.93326    0.59794    0.74890    1.000
    H3       H        0.00900    0.56710    0.74940    1.000
    C6       C        0.70050    0.56561    0.86556    1.000
    C7       C        0.72346    0.79626    0.64297    1.000
    O5       O        0.44690    0.57922    0.02175    1.000
    H4       H        0.47600    0.62580    0.03510    1.000
    O6       O        0.04918    0.58022    0.97864    1.000
    H5       H        0.02100    0.62780    0.96370    1.000
    N2       N        0.37992    0.42958    0.80728    1.000
    O7       O        0.26764    0.49036    0.91527    1.000
    O8       O        0.08323    0.42057    0.85434    1.000
    O9       O        0.14802    0.14553    0.66369    1.000
    O10      O        0.27577    0.19111    0.58747    1.000
    C8       C        0.26324    0.39413    0.80297    1.000
    C9       C        0.20849    0.32060    0.75178    1.000
    H6       H        0.12500    0.29800    0.75160    1.000
    C10      C        0.27800    0.28161    0.70267    1.000
    C11      C        0.39720    0.31907    0.70506    1.000
    H7       H        0.44200    0.29670    0.67060    1.000
    C12      C        0.44407    0.39267    0.75823    1.000
    H8       H        0.52500    0.41990    0.76310    1.000
    C13      C        0.19817    0.43822    0.86162    1.000
    C14      C        0.22850    0.19895    0.64671    1.000
    Mg4      Mg       0.55038    0.97079    0.59147    1.000
    Mg5      Mg       0.25025    0.09083    0.50049    1.000
    Mg6      Mg       0.04805    0.03112    0.59010    1.000
    N3       N        0.62482    0.06741    0.69594    1.000
    O11      O        0.73063    0.00952    0.58347    1.000
    O12      O        0.91213    0.08620    0.63935    1.000
    O13      O        0.85440    0.35168    0.83840    1.000
    O14      O        0.73486    0.30290    0.91869    1.000
    C15      C        0.73634    0.10801    0.69505    1.000
    C16      C        0.79028    0.18201    0.74561    1.000
    H9       H        0.86900    0.20910    0.74140    1.000
    C17      C        0.72722    0.21441    0.80126    1.000
    C18      C        0.61467    0.17038    0.80519    1.000
    H10      H        0.57200    0.18820    0.84270    1.000
    C19      C        0.56674    0.09794    0.75110    1.000
    H11      H        0.49100    0.06710    0.75060    1.000
    C20      C        0.79950    0.06561    0.63444    1.000
    C21      C        0.77654    0.29626    0.85703    1.000
    O15      O        0.05310    0.07922    0.47825    1.000
    H12      H        0.02400    0.12580    0.46490    1.000
    O16      O        0.45082    0.08022    0.52136    1.000
    H13      H        0.47900    0.12780    0.53630    1.000
    N4       N        0.12008    0.92958    0.69272    1.000
    O17      O        0.23236    0.99036    0.58473    1.000
    O18      O        0.41677    0.92057    0.64566    1.000
    O19      O        0.35198    0.64553    0.83631    1.000
    O20      O        0.22423    0.69111    0.91253    1.000
    C22      C        0.23676    0.89413    0.69703    1.000
    C23      C        0.29151    0.82060    0.74822    1.000
    H14      H        0.37500    0.79800    0.74840    1.000
    C24      C        0.22200    0.78161    0.79733    1.000
    C25      C        0.10280    0.81907    0.79494    1.000
    H15      H        0.05800    0.79670    0.82940    1.000
    C26      C        0.05593    0.89267    0.74177    1.000
    H16      H        0.97500    0.91990    0.73690    1.000
    C27      C        0.30183    0.93822    0.63838    1.000
    C28      C        0.27150    0.69895    0.85329    1.000
    Mg7      Mg       0.05038    0.52921    0.09147    1.000
    Mg8      Mg       0.75025    0.40917    0.00049    1.000
    Mg9      Mg       0.54805    0.46888    0.09010    1.000
    N5       N        0.12482    0.43259    0.19594    1.000
    O21      O        0.23063    0.49048    0.08347    1.000
    O22      O        0.41213    0.41380    0.13935    1.000
    O23      O        0.35440    0.14832    0.33840    1.000
    O24      O        0.23486    0.19710    0.41869    1.000
    C29      C        0.23634    0.39199    0.19505    1.000
    C30      C        0.29028    0.31799    0.24561    1.000
    H17      H        0.36900    0.29090    0.24140    1.000
    C31      C        0.22722    0.28559    0.30126    1.000
    C32      C        0.11467    0.32962    0.30519    1.000
    H18      H        0.07200    0.31180    0.34270    1.000
    C33      C        0.06674    0.40206    0.25110    1.000
    H19      H        0.99100    0.43290    0.25060    1.000
    C34      C        0.29950    0.43439    0.13444    1.000
    C35      C        0.27654    0.20374    0.35703    1.000
    O25      O        0.55310    0.42078    0.97825    1.000
    H20      H        0.52400    0.37420    0.96490    1.000
    O26      O        0.95082    0.41978    0.02136    1.000
    H21      H        0.97900    0.37220    0.03630    1.000
    N6       N        0.62008    0.57042    0.19272    1.000
    O27      O        0.73236    0.50964    0.08473    1.000
    O28      O        0.91677    0.57943    0.14566    1.000
    O29      O        0.85198    0.85447    0.33631    1.000
    O30      O        0.72423    0.80889    0.41253    1.000
    C36      C        0.73676    0.60587    0.19703    1.000
    C37      C        0.79151    0.67940    0.24822    1.000
    H22      H        0.87500    0.70200    0.24840    1.000
    C38      C        0.72200    0.71839    0.29733    1.000
    C39      C        0.60280    0.68093    0.29494    1.000
    H23      H        0.55800    0.70330    0.32940    1.000
    C40      C        0.55593    0.60733    0.24177    1.000
    H24      H        0.47500    0.58010    0.23690    1.000
    C41      C        0.80183    0.56178    0.13838    1.000
    C42      C        0.77150    0.80105    0.35329    1.000
    Mg10     Mg       0.44962    0.02921    0.40853    1.000
    Mg11     Mg       0.74975    0.90917    0.49951    1.000
    Mg12     Mg       0.95195    0.96888    0.40990    1.000
    N7       N        0.37518    0.93259    0.30406    1.000
    O31      O        0.26937    0.99048    0.41653    1.000
    O32      O        0.08787    0.91380    0.36065    1.000
    O33      O        0.14560    0.64832    0.16160    1.000
    O34      O        0.26514    0.69710    0.08131    1.000
    C43      C        0.26366    0.89199    0.30495    1.000
    C44      C        0.20972    0.81799    0.25439    1.000
    H25      H        0.13100    0.79090    0.25860    1.000
    C45      C        0.27278    0.78559    0.19874    1.000
    C46      C        0.38533    0.82962    0.19481    1.000
    H26      H        0.42800    0.81180    0.15730    1.000
    C47      C        0.43326    0.90206    0.24890    1.000
    H27      H        0.50900    0.93290    0.24940    1.000
    C48      C        0.20050    0.93439    0.36556    1.000
    C49      C        0.22346    0.70374    0.14297    1.000
    O35      O        0.94690    0.92078    0.52175    1.000
    H28      H        0.97600    0.87420    0.53510    1.000
    O36      O        0.54918    0.91978    0.47864    1.000
    H29      H        0.52100    0.87220    0.46370    1.000
    N8       N        0.87992    0.07042    0.30728    1.000
    O37      O        0.76764    0.00964    0.41527    1.000
    O38      O        0.58323    0.07943    0.35434    1.000
    O39      O        0.64802    0.35447    0.16369    1.000
    O40      O        0.77577    0.30889    0.08747    1.000
    C50      C        0.76324    0.10587    0.30297    1.000
    C51      C        0.70849    0.17940    0.25178    1.000
    H30      H        0.62500    0.20200    0.25160    1.000
    C52      C        0.77800    0.21839    0.20267    1.000
    C53      C        0.89720    0.18093    0.20506    1.000
    H31      H        0.94200    0.20330    0.17060    1.000
    C54      C        0.94407    0.10733    0.25823    1.000
    H32      H        0.02500    0.08010    0.26310    1.000
    C55      C        0.69817    0.06178    0.36162    1.000
    C56      C        0.72850    0.30105    0.14671    1.000
