# CIF file generated by openbabel 3.1.0, see https://openbabel.org
data_I
_chemical_name_common 'image0'
_cell_length_a 7.1072
_cell_length_b 9.4094
_cell_length_c 11.7847
_cell_angle_alpha 71.602
_cell_angle_beta 78.165
_cell_angle_gamma 70.296
_space_group_name_H-M_alt 'P 1'
_space_group_name_Hall 'P 1'
loop_
    _symmetry_equiv_pos_as_xyz
    x,y,z
loop_
    _atom_site_label
    _atom_site_type_symbol
    _atom_site_fract_x
    _atom_site_fract_y
    _atom_site_fract_z
    _atom_site_occupancy
    Ga1      Ga       0.46521    0.37565    0.83957    1.000
    P1       P        0.64571    0.09833    0.69775    1.000
    P2       P        0.30990    0.73427    0.67125    1.000
    P3       P        0.71292    0.54714    0.90563    1.000
    F1       F        0.20580    0.08870    0.50998    1.000
    F2       F        0.52540    0.18820    0.96434    1.000
    F3       F        0.22080    0.33810    0.83680    1.000
    O1       O        0.70920    0.42100    0.85150    1.000
    O2       O        0.40090    0.55730    0.70070    1.000
    O3       O        0.68250    0.50240    0.04160    1.000
    O4       O        0.61080    0.25610    0.72200    1.000
    O5       O        0.86660    0.03430    0.65400    1.000
    O6       O        0.46940    0.81990    0.63100    1.000
    O7       O        0.49990    0.10700    0.61640    1.000
    O8       O        0.15730    0.78880    0.58030    1.000
    O9       O        0.91430    0.59010    0.85710    1.000
    H1       H        0.58600    0.68900    0.86100    1.000
    H2       H        0.21900    0.77300    0.76800    1.000
    H3       H        0.60900    0.99400    0.80700    1.000
    H4       H        0.02800    0.52200    0.85600    1.000
    Ga2      Ga       0.53479    0.62435    0.16043    1.000
    P4       P        0.35429    0.90167    0.30225    1.000
    P5       P        0.69010    0.26573    0.32875    1.000
    P6       P        0.28708    0.45286    0.09437    1.000
    F4       F        0.79420    0.91130    0.49002    1.000
    F5       F        0.47460    0.81180    0.03566    1.000
    F6       F        0.77920    0.66190    0.16320    1.000
    O10      O        0.29080    0.57900    0.14850    1.000
    O11      O        0.59910    0.44270    0.29930    1.000
    O12      O        0.31750    0.49760    0.95840    1.000
    O13      O        0.38920    0.74390    0.27800    1.000
    O14      O        0.13340    0.96570    0.34600    1.000
    O15      O        0.53060    0.18010    0.36900    1.000
    O16      O        0.50010    0.89300    0.38360    1.000
    O17      O        0.84270    0.21120    0.41970    1.000
    O18      O        0.08570    0.40990    0.14290    1.000
    H5       H        0.41400    0.31100    0.13900    1.000
    H6       H        0.78100    0.22700    0.23200    1.000
    H7       H        0.39100    0.00600    0.19300    1.000
    H8       H        0.97200    0.47800    0.14400    1.000
    Ga3      Ga       0.00000    0.00000    0.50000    1.000
    Ga4      Ga       0.50000    0.00000    0.50000    1.000
