# CIF file generated by openbabel 3.1.0, see https://openbabel.org
data_I
_chemical_name_common 'image0'
_cell_length_a 9.026
_cell_length_b 12.942
_cell_length_c 18.457
_cell_angle_alpha 81.718
_cell_angle_beta 84.77
_cell_angle_gamma 72.443
_space_group_name_H-M_alt 'P 1'
_space_group_name_Hall 'P 1'
loop_
    _symmetry_equiv_pos_as_xyz
    x,y,z
loop_
    _atom_site_label
    _atom_site_type_symbol
    _atom_site_fract_x
    _atom_site_fract_y
    _atom_site_fract_z
    _atom_site_occupancy
    Cu1      Cu       0.42033    0.30359    0.34712    1.000
    N1       N        0.27150    0.74249    0.89628    1.000
    N2       N        0.16710    0.87937    0.95911    1.000
    N3       N        0.22870    0.20651    0.88234    1.000
    N4       N        0.07840    0.11082    0.93589    1.000
    N5       N        0.22520    0.44730    0.14954    1.000
    N6       N        0.33490    0.39482    0.25503    1.000
    N7       N        0.12990    0.56899    0.44245    1.000
    N8       N        0.30220    0.42376    0.40654    1.000
    N9       N        0.72970    0.04472    0.25364    1.000
    N10      N        0.53490    0.17838    0.29008    1.000
    N11      N        0.36060    0.90710    0.47766    1.000
    N12      N        0.51200    0.79725    0.56052    1.000
    C1       C        0.27860    0.54860    0.90291    1.000
    C2       C        0.32710    0.45210    0.87129    1.000
    C3       C        0.31620    0.35490    0.91022    1.000
    C4       C        0.25540    0.35440    0.98248    1.000
    C5       C        0.20450    0.44990    0.01502    1.000
    C6       C        0.21710    0.54740    0.97487    1.000
    C7       C        0.28290    0.65260    0.85473    1.000
    C8       C        0.13960    0.81620    0.91507    1.000
    C9       C        0.32290    0.84440    0.96870    1.000
    C10      C        0.38870    0.75930    0.92970    1.000
    C11      C        0.35980    0.25240    0.87320    1.000
    C12      C        0.22000    0.11940    0.92959    1.000
    C13      C        0.98990    0.19860    0.89095    1.000
    C14      C        0.08300    0.25750    0.85784    1.000
    C15      C        0.12540    0.44910    0.09079    1.000
    C16      C        0.26190    0.36690    0.20574    1.000
    C17      C        0.34390    0.49850    0.22965    1.000
    C18      C        0.27640    0.53140    0.16429    1.000
    C19      C        0.01820    0.77000    0.40735    1.000
    C20      C        0.94640    0.82210    0.34250    1.000
    C21      C        0.96790    0.92090    0.30995    1.000
    C22      C        0.06040    0.96740    0.34190    1.000
    C23      C        0.13120    0.91730    0.40719    1.000
    C24      C        0.10930    0.81860    0.43891    1.000
    C25      C        0.99060    0.66430    0.44377    1.000
    C26      C        0.16910    0.49980    0.39197    1.000
    C27      C        0.34890    0.44660    0.46977    1.000
    C28      C        0.24320    0.53610    0.49268    1.000
    C29      C        0.88970    0.97780    0.23952    1.000
    C30      C        0.68680    0.14240    0.27857    1.000
    C31      C        0.47750    0.09940    0.27127    1.000
    C32      C        0.59660    0.01630    0.24869    1.000
    C33      C        0.21880    0.97700    0.44365    1.000
    C34      C        0.36800    0.85130    0.54497    1.000
    C35      C        0.60260    0.82080    0.50011    1.000
    C36      C        0.50950    0.88800    0.44870    1.000
    H1       H        0.36850    0.45290    0.82210    1.000
    H2       H        0.24880    0.28770    0.00980    1.000
    H3       H        0.18340    0.61320    0.99680    1.000
    H4       H        0.38120    0.63830    0.82420    1.000
    H5       H        0.19590    0.67440    0.82140    1.000
    H6       H        0.03990    0.82230    0.89900    1.000
    H7       H        0.37660    0.87460    0.99800    1.000
    H8       H        0.49580    0.71940    0.92630    1.000
    H9       H        0.38530    0.26970    0.82040    1.000
    H10      H        0.45250    0.19860    0.89530    1.000
    H11      H        0.30530    0.07030    0.95510    1.000
    H12      H        0.88170    0.21460    0.88450    1.000
    H13      H        0.05320    0.32200    0.82410    1.000
    H14      H        0.03410    0.51480    0.09130    1.000
    H15      H        0.08680    0.38430    0.10110    1.000
    H16      H        0.23840    0.29950    0.20940    1.000
    H17      H        0.38990    0.54000    0.25400    1.000
    H18      H        0.26660    0.59920    0.13460    1.000
    H19      H        0.88270    0.79000    0.32050    1.000
    H20      H        0.07610    0.03420    0.31920    1.000
    H21      H        0.15790    0.78380    0.48320    1.000
    H22      H        0.95370    0.67270    0.49540    1.000
    H23      H        0.90720    0.65050    0.41880    1.000
    H24      H        0.10950    0.50440    0.35110    1.000
    H25      H        0.44120    0.40580    0.49370    1.000
    H26      H        0.24670    0.56940    0.53490    1.000
    H27      H        0.95050    0.02470    0.21270    1.000
    H28      H        0.88900    0.92220    0.20800    1.000
    H29      H        0.75710    0.18080    0.28690    1.000
    H30      H        0.37070    0.10250    0.27370    1.000
    H31      H        0.58950    0.95150    0.23270    1.000
    H32      H        0.24650    0.03230    0.40650    1.000
    H33      H        0.14860    0.01630    0.48170    1.000
    H34      H        0.28000    0.85100    0.57740    1.000
    H35      H        0.71280    0.79420    0.49530    1.000
    H36      H        0.54160    0.91640    0.40160    1.000
    Cu2      Cu       0.57967    0.69641    0.65288    1.000
    N13      N        0.72850    0.25751    0.10372    1.000
    N14      N        0.83290    0.12063    0.04089    1.000
    N15      N        0.77130    0.79349    0.11766    1.000
    N16      N        0.92160    0.88918    0.06411    1.000
    N17      N        0.77480    0.55270    0.85046    1.000
    N18      N        0.66510    0.60518    0.74497    1.000
    N19      N        0.87010    0.43101    0.55755    1.000
    N20      N        0.69780    0.57624    0.59346    1.000
    N21      N        0.27030    0.95528    0.74636    1.000
    N22      N        0.46510    0.82162    0.70992    1.000
    N23      N        0.63940    0.09290    0.52234    1.000
    N24      N        0.48800    0.20275    0.43948    1.000
    C37      C        0.72140    0.45140    0.09709    1.000
    C38      C        0.67290    0.54790    0.12871    1.000
    C39      C        0.68380    0.64510    0.08978    1.000
    C40      C        0.74460    0.64560    0.01752    1.000
    C41      C        0.79550    0.55010    0.98498    1.000
    C42      C        0.78290    0.45260    0.02513    1.000
    C43      C        0.71710    0.34740    0.14527    1.000
    C44      C        0.86040    0.18380    0.08493    1.000
    C45      C        0.67710    0.15560    0.03130    1.000
    C46      C        0.61130    0.24070    0.07030    1.000
    C47      C        0.64020    0.74760    0.12680    1.000
    C48      C        0.78000    0.88060    0.07041    1.000
    C49      C        0.01010    0.80140    0.10905    1.000
    C50      C        0.91700    0.74250    0.14216    1.000
    C51      C        0.87460    0.55090    0.90921    1.000
    C52      C        0.73810    0.63310    0.79426    1.000
    C53      C        0.65610    0.50150    0.77035    1.000
    C54      C        0.72360    0.46860    0.83571    1.000
    C55      C        0.98180    0.23000    0.59265    1.000
    C56      C        0.05360    0.17790    0.65750    1.000
    C57      C        0.03210    0.07910    0.69005    1.000
    C58      C        0.93960    0.03260    0.65810    1.000
    C59      C        0.86880    0.08270    0.59281    1.000
    C60      C        0.89070    0.18140    0.56109    1.000
    C61      C        0.00940    0.33570    0.55623    1.000
    C62      C        0.83090    0.50020    0.60803    1.000
    C63      C        0.65110    0.55340    0.53023    1.000
    C64      C        0.75680    0.46390    0.50732    1.000
    C65      C        0.11030    0.02220    0.76048    1.000
    C66      C        0.31320    0.85760    0.72143    1.000
    C67      C        0.52250    0.90060    0.72873    1.000
    C68      C        0.40340    0.98370    0.75131    1.000
    C69      C        0.78120    0.02300    0.55635    1.000
    C70      C        0.63200    0.14870    0.45503    1.000
    C71      C        0.39740    0.17920    0.49989    1.000
    C72      C        0.49050    0.11200    0.55130    1.000
    H37      H        0.63150    0.54710    0.17790    1.000
    H38      H        0.75120    0.71230    0.99020    1.000
    H39      H        0.81660    0.38680    0.00320    1.000
    H40      H        0.61880    0.36170    0.17580    1.000
    H41      H        0.80410    0.32560    0.17860    1.000
    H42      H        0.96010    0.17770    0.10100    1.000
    H43      H        0.62340    0.12540    0.00200    1.000
    H44      H        0.50420    0.28060    0.07370    1.000
    H45      H        0.61470    0.73030    0.17960    1.000
    H46      H        0.54750    0.80140    0.10470    1.000
    H47      H        0.69470    0.92970    0.04490    1.000
    H48      H        0.11830    0.78540    0.11550    1.000
    H49      H        0.94680    0.67800    0.17590    1.000
    H50      H        0.96590    0.48520    0.90870    1.000
    H51      H        0.91320    0.61570    0.89890    1.000
    H52      H        0.76160    0.70050    0.79060    1.000
    H53      H        0.61010    0.46000    0.74600    1.000
    H54      H        0.73340    0.40080    0.86540    1.000
    H55      H        0.11730    0.21000    0.67950    1.000
    H56      H        0.92390    0.96580    0.68080    1.000
    H57      H        0.84210    0.21620    0.51680    1.000
    H58      H        0.04630    0.32730    0.50460    1.000
    H59      H        0.09280    0.34950    0.58120    1.000
    H60      H        0.89050    0.49560    0.64890    1.000
    H61      H        0.55880    0.59420    0.50630    1.000
    H62      H        0.75330    0.43060    0.46510    1.000
    H63      H        0.04950    0.97530    0.78730    1.000
    H64      H        0.11100    0.07780    0.79200    1.000
    H65      H        0.24290    0.81920    0.71310    1.000
    H66      H        0.62930    0.89750    0.72630    1.000
    H67      H        0.41050    0.04850    0.76730    1.000
    H68      H        0.75350    0.96770    0.59350    1.000
    H69      H        0.85140    0.98370    0.51830    1.000
    H70      H        0.72000    0.14900    0.42260    1.000
    H71      H        0.28720    0.20580    0.50470    1.000
    H72      H        0.45840    0.08360    0.59840    1.000
    Cu3      Cu       0.00000    0.00000    0.00000    1.000
