# CIF file generated by openbabel 3.1.0, see https://openbabel.org
data_I
_chemical_name_common 'image0'
_cell_length_a 28.9105
_cell_length_b 28.9105
_cell_length_c 14.3863
_cell_angle_alpha 90
_cell_angle_beta 90
_cell_angle_gamma 120
_space_group_name_H-M_alt 'P 1'
_space_group_name_Hall 'P 1'
loop_
    _symmetry_equiv_pos_as_xyz
    x,y,z
loop_
    _atom_site_label
    _atom_site_type_symbol
    _atom_site_fract_x
    _atom_site_fract_y
    _atom_site_fract_z
    _atom_site_occupancy
    Ag1      Ag       0.80207    0.06580    0.39295    1.000
    N1       N        0.73293    0.99703    0.29810    1.000
    C1       C        0.76840    0.92660    0.60060    1.000
    H1       H        0.76500    0.92270    0.66620    1.000
    C2       C        0.73800    0.95522    0.27140    1.000
    C3       C        0.77775    0.94139    0.41570    1.000
    C4       C        0.78267    0.94900    0.31210    1.000
    H2       H        0.78240    0.91780    0.28310    1.000
    H3       H        0.81730    0.98110    0.29730    1.000
    C5       C        0.75820    0.89128    0.45550    1.000
    H4       H        0.74720    0.86120    0.41600    1.000
    N2       N        0.79250    0.98433    0.46850    1.000
    C6       C        0.65870    0.96590    0.19720    1.000
    H5       H        0.63110    0.97080    0.17230    1.000
    N3       N        0.75429    0.88383    0.54720    1.000
    C7       C        0.70230    0.91860    0.20710    1.000
    H6       H        0.70610    0.88890    0.18990    1.000
    C8       C        0.78790    0.97650    0.56100    1.000
    H7       H        0.79840    0.00640    0.60060    1.000
    N4       N        0.66270    0.92398    0.16880    1.000
    C9       C        0.69350    0.00230    0.26160    1.000
    H8       H        0.68910    0.03140    0.28000    1.000
    Ag2      Ag       0.46874    0.39913    0.72628    1.000
    N5       N        0.39960    0.33036    0.63143    1.000
    C10      C        0.43507    0.25993    0.93393    1.000
    H9       H        0.43167    0.25603    0.99953    1.000
    C11      C        0.40467    0.28855    0.60473    1.000
    C12      C        0.44442    0.27472    0.74903    1.000
    C13      C        0.44934    0.28233    0.64543    1.000
    H10      H        0.44907    0.25113    0.61643    1.000
    H11      H        0.48397    0.31443    0.63063    1.000
    C14      C        0.42487    0.22461    0.78883    1.000
    H12      H        0.41387    0.19453    0.74933    1.000
    N6       N        0.45917    0.31766    0.80183    1.000
    C15      C        0.32537    0.29923    0.53053    1.000
    H13      H        0.29777    0.30413    0.50563    1.000
    N7       N        0.42096    0.21716    0.88053    1.000
    C16      C        0.36897    0.25193    0.54043    1.000
    H14      H        0.37277    0.22223    0.52323    1.000
    C17      C        0.45457    0.30983    0.89433    1.000
    H15      H        0.46507    0.33973    0.93393    1.000
    N8       N        0.32937    0.25731    0.50213    1.000
    C18      C        0.36017    0.33563    0.59493    1.000
    H16      H        0.35577    0.36473    0.61333    1.000
    Ag3      Ag       0.13540    0.73247    0.05962    1.000
    N9       N        0.06626    0.66370    0.96477    1.000
    C19      C        0.10173    0.59327    0.26727    1.000
    H17      H        0.09833    0.58937    0.33287    1.000
    C20      C        0.07133    0.62189    0.93807    1.000
    C21      C        0.11108    0.60806    0.08237    1.000
    C22      C        0.11600    0.61567    0.97877    1.000
    H18      H        0.11573    0.58447    0.94977    1.000
    H19      H        0.15063    0.64777    0.96397    1.000
    C23      C        0.09153    0.55795    0.12217    1.000
    H20      H        0.08053    0.52787    0.08267    1.000
    N10      N        0.12583    0.65100    0.13517    1.000
    C24      C        0.99203    0.63257    0.86387    1.000
    H21      H        0.96443    0.63747    0.83897    1.000
    N11      N        0.08762    0.55050    0.21387    1.000
    C25      C        0.03563    0.58527    0.87377    1.000
    H22      H        0.03943    0.55557    0.85657    1.000
    C26      C        0.12123    0.64317    0.22767    1.000
    H23      H        0.13173    0.67307    0.26727    1.000
    N12      N        0.99603    0.59065    0.83547    1.000
    C27      C        0.02683    0.66897    0.92827    1.000
    H24      H        0.02243    0.69807    0.94667    1.000
    Ag4      Ag       0.93420    0.73627    0.39295    1.000
    N13      N        0.00297    0.73590    0.29810    1.000
    C28      C        0.07340    0.84180    0.60060    1.000
    H25      H        0.07730    0.84230    0.66620    1.000
    C29      C        0.04478    0.78278    0.27140    1.000
    C30      C        0.05861    0.83636    0.41570    1.000
    C31      C        0.05100    0.83367    0.31210    1.000
    H26      H        0.08220    0.86460    0.28310    1.000
    H27      H        0.01890    0.83620    0.29730    1.000
    C32      C        0.10872    0.86692    0.45550    1.000
    H28      H        0.13880    0.88600    0.41600    1.000
    N14      N        0.01567    0.80817    0.46850    1.000
    C33      C        0.03410    0.69280    0.19720    1.000
    H29      H        0.02920    0.66030    0.17230    1.000
    N15      N        0.11617    0.87046    0.54720    1.000
    C34      C        0.08140    0.78370    0.20710    1.000
    H30      H        0.11110    0.81720    0.18990    1.000
    C35      C        0.02350    0.81140    0.56100    1.000
    H31      H        0.99360    0.79200    0.60060    1.000
    N16      N        0.07602    0.73872    0.16880    1.000
    C36      C        0.99770    0.69120    0.26160    1.000
    H32      H        0.96860    0.65770    0.28000    1.000
    Ag5      Ag       0.60087    0.06960    0.72628    1.000
    N17      N        0.66964    0.06923    0.63143    1.000
    C37      C        0.74007    0.17513    0.93393    1.000
    H33      H        0.74397    0.17563    0.99953    1.000
    C38      C        0.71145    0.11611    0.60473    1.000
    C39      C        0.72528    0.16969    0.74903    1.000
    C40      C        0.71767    0.16700    0.64543    1.000
    H34      H        0.74887    0.19793    0.61643    1.000
    H35      H        0.68557    0.16953    0.63063    1.000
    C41      C        0.77539    0.20025    0.78883    1.000
    H36      H        0.80547    0.21933    0.74933    1.000
    N18      N        0.68234    0.14150    0.80183    1.000
    C42      C        0.70077    0.02613    0.53053    1.000
    H37      H        0.69587    0.99363    0.50563    1.000
    N19      N        0.78284    0.20379    0.88053    1.000
    C43      C        0.74807    0.11703    0.54043    1.000
    H38      H        0.77777    0.15053    0.52323    1.000
    C44      C        0.69017    0.14473    0.89433    1.000
    H39      H        0.66027    0.12533    0.93393    1.000
    N20      N        0.74269    0.07205    0.50213    1.000
    C45      C        0.66437    0.02453    0.59493    1.000
    H40      H        0.63527    0.99103    0.61333    1.000
    Ag6      Ag       0.26753    0.40294    0.05962    1.000
    N21      N        0.33630    0.40257    0.96477    1.000
    C46      C        0.40673    0.50847    0.26727    1.000
    H41      H        0.41063    0.50897    0.33287    1.000
    C47      C        0.37811    0.44945    0.93807    1.000
    C48      C        0.39194    0.50303    0.08237    1.000
    C49      C        0.38433    0.50034    0.97877    1.000
    H42      H        0.41553    0.53127    0.94977    1.000
    H43      H        0.35223    0.50287    0.96397    1.000
    C50      C        0.44205    0.53359    0.12217    1.000
    H44      H        0.47213    0.55267    0.08267    1.000
    N22      N        0.34900    0.47484    0.13517    1.000
    C51      C        0.36743    0.35947    0.86387    1.000
    H45      H        0.36253    0.32697    0.83897    1.000
    N23      N        0.44950    0.53713    0.21387    1.000
    C52      C        0.41473    0.45037    0.87377    1.000
    H46      H        0.44443    0.48387    0.85657    1.000
    C53      C        0.35683    0.47807    0.22767    1.000
    H47      H        0.32693    0.45867    0.26727    1.000
    N24      N        0.40935    0.40539    0.83547    1.000
    C54      C        0.33103    0.35787    0.92827    1.000
    H48      H        0.30193    0.32437    0.94667    1.000
    Ag7      Ag       0.26373    0.19793    0.39295    1.000
    N25      N        0.26410    0.26707    0.29810    1.000
    C55      C        0.15820    0.23160    0.60060    1.000
    H49      H        0.15770    0.23500    0.66620    1.000
    C56      C        0.21722    0.26200    0.27140    1.000
    C57      C        0.16364    0.22225    0.41570    1.000
    C58      C        0.16633    0.21733    0.31210    1.000
    H50      H        0.13540    0.21760    0.28310    1.000
    H51      H        0.16380    0.18270    0.29730    1.000
    C59      C        0.13308    0.24180    0.45550    1.000
    H52      H        0.11400    0.25280    0.41600    1.000
    N26      N        0.19183    0.20750    0.46850    1.000
    C60      C        0.30720    0.34130    0.19720    1.000
    H53      H        0.33970    0.36890    0.17230    1.000
    N27      N        0.12954    0.24571    0.54720    1.000
    C61      C        0.21630    0.29770    0.20710    1.000
    H54      H        0.18280    0.29390    0.18990    1.000
    C62      C        0.18860    0.21210    0.56100    1.000
    H55      H        0.20800    0.20160    0.60060    1.000
    N28      N        0.26128    0.33730    0.16880    1.000
    C63      C        0.30880    0.30650    0.26160    1.000
    H56      H        0.34230    0.31090    0.28000    1.000
    Ag8      Ag       0.93040    0.53126    0.72628    1.000
    N29      N        0.93077    0.60040    0.63143    1.000
    C64      C        0.82487    0.56493    0.93393    1.000
    H57      H        0.82437    0.56833    0.99953    1.000
    C65      C        0.88389    0.59533    0.60473    1.000
    C66      C        0.83031    0.55558    0.74903    1.000
    C67      C        0.83300    0.55066    0.64543    1.000
    H58      H        0.80207    0.55093    0.61643    1.000
    H59      H        0.83047    0.51603    0.63063    1.000
    C68      C        0.79975    0.57513    0.78883    1.000
    H60      H        0.78067    0.58613    0.74933    1.000
    N30      N        0.85850    0.54083    0.80183    1.000
    C69      C        0.97387    0.67463    0.53053    1.000
    H61      H        0.00637    0.70223    0.50563    1.000
    N31      N        0.79621    0.57904    0.88053    1.000
    C70      C        0.88297    0.63103    0.54043    1.000
    H62      H        0.84947    0.62723    0.52323    1.000
    C71      C        0.85527    0.54543    0.89433    1.000
    H63      H        0.87467    0.53493    0.93393    1.000
    N32      N        0.92795    0.67063    0.50213    1.000
    C72      C        0.97547    0.63983    0.59493    1.000
    H64      H        0.00897    0.64423    0.61333    1.000
    Ag9      Ag       0.59706    0.86460    0.05962    1.000
    N33      N        0.59743    0.93374    0.96477    1.000
    C73      C        0.49153    0.89827    0.26727    1.000
    H65      H        0.49103    0.90167    0.33287    1.000
    C74      C        0.55055    0.92867    0.93807    1.000
    C75      C        0.49697    0.88892    0.08237    1.000
    C76      C        0.49966    0.88400    0.97877    1.000
    H66      H        0.46873    0.88427    0.94977    1.000
    H67      H        0.49713    0.84937    0.96397    1.000
    C77      C        0.46641    0.90847    0.12217    1.000
    H68      H        0.44733    0.91947    0.08267    1.000
    N34      N        0.52516    0.87417    0.13517    1.000
    C78      C        0.64053    0.00797    0.86387    1.000
    H69      H        0.67303    0.03557    0.83897    1.000
    N35      N        0.46287    0.91238    0.21387    1.000
    C79      C        0.54963    0.96437    0.87377    1.000
    H70      H        0.51613    0.96057    0.85657    1.000
    C80      C        0.52193    0.87877    0.22767    1.000
    H71      H        0.54133    0.86827    0.26727    1.000
    N36      N        0.59461    0.00397    0.83547    1.000
    C81      C        0.64213    0.97317    0.92827    1.000
    H72      H        0.67563    0.97757    0.94667    1.000
    Ag10     Ag       0.19793    0.93420    0.60705    1.000
    N37      N        0.26707    0.00297    0.70190    1.000
    C82      C        0.23160    0.07340    0.39940    1.000
    H73      H        0.23500    0.07730    0.33380    1.000
    C83      C        0.26200    0.04478    0.72860    1.000
    C84      C        0.22225    0.05861    0.58430    1.000
    C85      C        0.21733    0.05100    0.68790    1.000
    H74      H        0.21760    0.08220    0.71690    1.000
    H75      H        0.18270    0.01890    0.70270    1.000
    C86      C        0.24180    0.10872    0.54450    1.000
    H76      H        0.25280    0.13880    0.58400    1.000
    N38      N        0.20750    0.01567    0.53150    1.000
    C87      C        0.34130    0.03410    0.80280    1.000
    H77      H        0.36890    0.02920    0.82770    1.000
    N39      N        0.24571    0.11617    0.45280    1.000
    C88      C        0.29770    0.08140    0.79290    1.000
    H78      H        0.29390    0.11110    0.81010    1.000
    C89      C        0.21210    0.02350    0.43900    1.000
    H79      H        0.20160    0.99360    0.39940    1.000
    N40      N        0.33730    0.07602    0.83120    1.000
    C90      C        0.30650    0.99770    0.73840    1.000
    H80      H        0.31090    0.96860    0.72000    1.000
    Ag11     Ag       0.86460    0.26753    0.94038    1.000
    N41      N        0.93374    0.33630    0.03523    1.000
    C91      C        0.89827    0.40673    0.73273    1.000
    H81      H        0.90167    0.41063    0.66713    1.000
    C92      C        0.92867    0.37811    0.06193    1.000
    C93      C        0.88892    0.39194    0.91763    1.000
    C94      C        0.88400    0.38433    0.02123    1.000
    H82      H        0.88427    0.41553    0.05023    1.000
    H83      H        0.84937    0.35223    0.03603    1.000
    C95      C        0.90847    0.44205    0.87783    1.000
    H84      H        0.91947    0.47213    0.91733    1.000
    N42      N        0.87417    0.34900    0.86483    1.000
    C96      C        0.00797    0.36743    0.13613    1.000
    H85      H        0.03557    0.36253    0.16103    1.000
    N43      N        0.91238    0.44950    0.78613    1.000
    C97      C        0.96437    0.41473    0.12623    1.000
    H86      H        0.96057    0.44443    0.14343    1.000
    C98      C        0.87877    0.35683    0.77233    1.000
    H87      H        0.86827    0.32693    0.73273    1.000
    N44      N        0.00397    0.40935    0.16453    1.000
    C99      C        0.97317    0.33103    0.07173    1.000
    H88      H        0.97757    0.30193    0.05333    1.000
    Ag12     Ag       0.53126    0.60087    0.27372    1.000
    N45      N        0.60040    0.66964    0.36857    1.000
    C100     C        0.56493    0.74007    0.06607    1.000
    H89      H        0.56833    0.74397    0.00047    1.000
    C101     C        0.59533    0.71145    0.39527    1.000
    C102     C        0.55558    0.72528    0.25097    1.000
    C103     C        0.55066    0.71767    0.35457    1.000
    H90      H        0.55093    0.74887    0.38357    1.000
    H91      H        0.51603    0.68557    0.36937    1.000
    C104     C        0.57513    0.77539    0.21117    1.000
    H92      H        0.58613    0.80547    0.25067    1.000
    N46      N        0.54083    0.68234    0.19817    1.000
    C105     C        0.67463    0.70077    0.46947    1.000
    H93      H        0.70223    0.69587    0.49437    1.000
    N47      N        0.57904    0.78284    0.11947    1.000
    C106     C        0.63103    0.74807    0.45957    1.000
    H94      H        0.62723    0.77777    0.47677    1.000
    C107     C        0.54543    0.69017    0.10567    1.000
    H95      H        0.53493    0.66027    0.06607    1.000
    N48      N        0.67063    0.74269    0.49787    1.000
    C108     C        0.63983    0.66437    0.40507    1.000
    H96      H        0.64423    0.63527    0.38667    1.000
    Ag13     Ag       0.06580    0.26373    0.60705    1.000
    N49      N        0.99703    0.26410    0.70190    1.000
    C109     C        0.92660    0.15820    0.39940    1.000
    H97      H        0.92270    0.15770    0.33380    1.000
    C110     C        0.95522    0.21722    0.72860    1.000
    C111     C        0.94139    0.16364    0.58430    1.000
    C112     C        0.94900    0.16633    0.68790    1.000
    H98      H        0.91780    0.13540    0.71690    1.000
    H99      H        0.98110    0.16380    0.70270    1.000
    C113     C        0.89128    0.13308    0.54450    1.000
    H100     H        0.86120    0.11400    0.58400    1.000
    N50      N        0.98433    0.19183    0.53150    1.000
    C114     C        0.96590    0.30720    0.80280    1.000
    H101     H        0.97080    0.33970    0.82770    1.000
    N51      N        0.88383    0.12954    0.45280    1.000
    C115     C        0.91860    0.21630    0.79290    1.000
    H102     H        0.88890    0.18280    0.81010    1.000
    C116     C        0.97650    0.18860    0.43900    1.000
    H103     H        0.00640    0.20800    0.39940    1.000
    N52      N        0.92398    0.26128    0.83120    1.000
    C117     C        0.00230    0.30880    0.73840    1.000
    H104     H        0.03140    0.34230    0.72000    1.000
    Ag14     Ag       0.73247    0.59706    0.94038    1.000
    N53      N        0.66370    0.59743    0.03523    1.000
    C118     C        0.59327    0.49153    0.73273    1.000
    H105     H        0.58937    0.49103    0.66713    1.000
    C119     C        0.62189    0.55055    0.06193    1.000
    C120     C        0.60806    0.49697    0.91763    1.000
    C121     C        0.61567    0.49966    0.02123    1.000
    H106     H        0.58447    0.46873    0.05023    1.000
    H107     H        0.64777    0.49713    0.03603    1.000
    C122     C        0.55795    0.46641    0.87783    1.000
    H108     H        0.52787    0.44733    0.91733    1.000
    N54      N        0.65100    0.52516    0.86483    1.000
    C123     C        0.63257    0.64053    0.13613    1.000
    H109     H        0.63747    0.67303    0.16103    1.000
    N55      N        0.55050    0.46287    0.78613    1.000
    C124     C        0.58527    0.54963    0.12623    1.000
    H110     H        0.55557    0.51613    0.14343    1.000
    C125     C        0.64317    0.52193    0.77233    1.000
    H111     H        0.67307    0.54133    0.73273    1.000
    N56      N        0.59065    0.59461    0.16453    1.000
    C126     C        0.66897    0.64213    0.07173    1.000
    H112     H        0.69807    0.67563    0.05333    1.000
    Ag15     Ag       0.39913    0.93040    0.27372    1.000
    N57      N        0.33036    0.93077    0.36857    1.000
    C127     C        0.25993    0.82487    0.06607    1.000
    H113     H        0.25603    0.82437    0.00047    1.000
    C128     C        0.28855    0.88389    0.39527    1.000
    C129     C        0.27472    0.83031    0.25097    1.000
    C130     C        0.28233    0.83300    0.35457    1.000
    H114     H        0.25113    0.80207    0.38357    1.000
    H115     H        0.31443    0.83047    0.36937    1.000
    C131     C        0.22461    0.79975    0.21117    1.000
    H116     H        0.19453    0.78067    0.25067    1.000
    N58      N        0.31766    0.85850    0.19817    1.000
    C132     C        0.29923    0.97387    0.46947    1.000
    H117     H        0.30413    0.00637    0.49437    1.000
    N59      N        0.21716    0.79621    0.11947    1.000
    C133     C        0.25193    0.88297    0.45957    1.000
    H118     H        0.22223    0.84947    0.47677    1.000
    C134     C        0.30983    0.85527    0.10567    1.000
    H119     H        0.33973    0.87467    0.06607    1.000
    N60      N        0.25731    0.92795    0.49787    1.000
    C135     C        0.33563    0.97547    0.40507    1.000
    H120     H        0.36473    0.00897    0.38667    1.000
    Ag16     Ag       0.73627    0.80207    0.60705    1.000
    N61      N        0.73590    0.73293    0.70190    1.000
    C136     C        0.84180    0.76840    0.39940    1.000
    H121     H        0.84230    0.76500    0.33380    1.000
    C137     C        0.78278    0.73800    0.72860    1.000
    C138     C        0.83636    0.77775    0.58430    1.000
    C139     C        0.83367    0.78267    0.68790    1.000
    H122     H        0.86460    0.78240    0.71690    1.000
    H123     H        0.83620    0.81730    0.70270    1.000
    C140     C        0.86692    0.75820    0.54450    1.000
    H124     H        0.88600    0.74720    0.58400    1.000
    N62      N        0.80817    0.79250    0.53150    1.000
    C141     C        0.69280    0.65870    0.80280    1.000
    H125     H        0.66030    0.63110    0.82770    1.000
    N63      N        0.87046    0.75429    0.45280    1.000
    C142     C        0.78370    0.70230    0.79290    1.000
    H126     H        0.81720    0.70610    0.81010    1.000
    C143     C        0.81140    0.78790    0.43900    1.000
    H127     H        0.79200    0.79840    0.39940    1.000
    N64      N        0.73872    0.66270    0.83120    1.000
    C144     C        0.69120    0.69350    0.73840    1.000
    H128     H        0.65770    0.68910    0.72000    1.000
    Ag17     Ag       0.40294    0.13540    0.94038    1.000
    N65      N        0.40257    0.06626    0.03523    1.000
    C145     C        0.50847    0.10173    0.73273    1.000
    H129     H        0.50897    0.09833    0.66713    1.000
    C146     C        0.44945    0.07133    0.06193    1.000
    C147     C        0.50303    0.11108    0.91763    1.000
    C148     C        0.50034    0.11600    0.02123    1.000
    H130     H        0.53127    0.11573    0.05023    1.000
    H131     H        0.50287    0.15063    0.03603    1.000
    C149     C        0.53359    0.09153    0.87783    1.000
    H132     H        0.55267    0.08053    0.91733    1.000
    N66      N        0.47484    0.12583    0.86483    1.000
    C150     C        0.35947    0.99203    0.13613    1.000
    H133     H        0.32697    0.96443    0.16103    1.000
    N67      N        0.53713    0.08762    0.78613    1.000
    C151     C        0.45037    0.03563    0.12623    1.000
    H134     H        0.48387    0.03943    0.14343    1.000
    C152     C        0.47807    0.12123    0.77233    1.000
    H135     H        0.45867    0.13173    0.73273    1.000
    N68      N        0.40539    0.99603    0.16453    1.000
    C153     C        0.35787    0.02683    0.07173    1.000
    H136     H        0.32437    0.02243    0.05333    1.000
    Ag18     Ag       0.06960    0.46874    0.27372    1.000
    N69      N        0.06923    0.39960    0.36857    1.000
    C154     C        0.17513    0.43507    0.06607    1.000
    H137     H        0.17563    0.43167    0.00047    1.000
    C155     C        0.11611    0.40467    0.39527    1.000
    C156     C        0.16969    0.44442    0.25097    1.000
    C157     C        0.16700    0.44934    0.35457    1.000
    H138     H        0.19793    0.44907    0.38357    1.000
    H139     H        0.16953    0.48397    0.36937    1.000
    C158     C        0.20025    0.42487    0.21117    1.000
    H140     H        0.21933    0.41387    0.25067    1.000
    N70      N        0.14150    0.45917    0.19817    1.000
    C159     C        0.02613    0.32537    0.46947    1.000
    H141     H        0.99363    0.29777    0.49437    1.000
    N71      N        0.20379    0.42096    0.11947    1.000
    C160     C        0.11703    0.36897    0.45957    1.000
    H142     H        0.15053    0.37277    0.47677    1.000
    C161     C        0.14473    0.45457    0.10567    1.000
    H143     H        0.12533    0.46507    0.06607    1.000
    N72      N        0.07205    0.32937    0.49787    1.000
    C162     C        0.02453    0.36017    0.40507    1.000
    H144     H        0.99103    0.35577    0.38667    1.000
