# CIF file generated by openbabel 3.1.0, see https://openbabel.org
data_I
_chemical_name_common 'image0'
_cell_length_a 41.5112
_cell_length_b 41.4556
_cell_length_c 31.1677
_cell_angle_alpha 90
_cell_angle_beta 109.408
_cell_angle_gamma 90
_space_group_name_H-M_alt 'P 1'
_space_group_name_Hall 'P 1'
loop_
    _symmetry_equiv_pos_as_xyz
    x,y,z
loop_
    _atom_site_label
    _atom_site_type_symbol
    _atom_site_fract_x
    _atom_site_fract_y
    _atom_site_fract_z
    _atom_site_occupancy
    Cu1      Cu       0.98836    0.98185    0.52629    1.000
    Cu2      Cu       0.73847    0.26819    0.02631    1.000
    Cu3      Cu       0.64982    0.85682    0.02637    1.000
    Cu4      Cu       0.60028    0.89317    0.97376    1.000
    C1       C        0.00677    0.81251    0.27559    1.000
    C2       C        0.00059    0.83898    0.29910    1.000
    C3       C        0.01227    0.83906    0.34638    1.000
    C4       C        0.03014    0.81266    0.37016    1.000
    H1       H        0.03800    0.81270    0.40210    1.000
    C5       C        0.03632    0.78618    0.34666    1.000
    C6       C        0.02463    0.78610    0.29937    1.000
    C7       C        0.00100    0.95140    0.45230    1.000
    C8       C        0.05272    0.75626    0.37300    1.000
    C9       C        0.03951    0.72566    0.35962    1.000
    H2       H        0.02010    0.72310    0.33360    1.000
    C10      C        0.05499    0.69879    0.38470    1.000
    H3       H        0.04610    0.67810    0.37570    1.000
    C11      C        0.08369    0.70251    0.42320    1.000
    C12      C        0.09691    0.73311    0.43659    1.000
    H4       H        0.11630    0.73560    0.46260    1.000
    C13      C        0.08142    0.75999    0.41150    1.000
    H5       H        0.09040    0.78070    0.42060    1.000
    C14      C        0.09900    0.67330    0.45130    1.000
    C15      C        0.00874    0.86837    0.37300    1.000
    C16      C        0.01542    0.89890    0.35952    1.000
    H6       H        0.02170    0.90130    0.33340    1.000
    C17      C        0.01283    0.92584    0.38470    1.000
    H7       H        0.01730    0.94650    0.37560    1.000
    C18      C        0.00356    0.92225    0.42340    1.000
    C19      C        0.99688    0.89172    0.43689    1.000
    H8       H        0.99060    0.88930    0.46310    1.000
    C20      C        0.99947    0.86478    0.41170    1.000
    H9       H        0.99500    0.84410    0.42080    1.000
    C21      C        0.65050    0.92270    0.04810    1.000
    C22      C        0.73695    0.08919    0.15300    1.000
    C23      C        0.72000    0.06228    0.12957    1.000
    H10      H        0.71200    0.06220    0.09760    1.000
    C24      C        0.71494    0.03549    0.15340    1.000
    C25      C        0.72682    0.03562    0.20070    1.000
    C26      C        0.74377    0.06253    0.22414    1.000
    C27      C        0.74884    0.08932    0.20030    1.000
    C28      C        0.74900    0.20100    0.04780    1.000
    C29      C        0.74077    0.11898    0.12658    1.000
    C30      C        0.75006    0.11529    0.08790    1.000
    H11      H        0.75430    0.09460    0.07870    1.000
    C31      C        0.75311    0.14221    0.06297    1.000
    H12      H        0.75940    0.13970    0.03680    1.000
    C32      C        0.74688    0.17282    0.07670    1.000
    C33      C        0.73759    0.17650    0.11530    1.000
    H13      H        0.73340    0.19720    0.12460    1.000
    C34      C        0.73454    0.14958    0.14028    1.000
    H14      H        0.72830    0.15210    0.16640    1.000
    C35      C        0.66100    0.11120    0.45130    1.000
    C36      C        0.69766    0.00627    0.12650    1.000
    C37      C        0.66906    0.00994    0.08790    1.000
    H15      H        0.66010    0.03060    0.07870    1.000
    C38      C        0.65363    0.98302    0.06286    1.000
    H16      H        0.63430    0.98550    0.03670    1.000
    C39      C        0.66681    0.95243    0.07640    1.000
    C40      C        0.69542    0.94877    0.11510    1.000
    H17      H        0.70430    0.92810    0.12430    1.000
    C41      C        0.71085    0.97569    0.14009    1.000
    H18      H        0.73020    0.97320    0.16620    1.000
    C42      C        0.41140    0.13800    0.95090    1.000
    C43      C        0.75645    0.06290    0.27580    1.000
    C44      C        0.73564    0.07410    0.29952    1.000
    C45      C        0.74734    0.07371    0.34680    1.000
    C46      C        0.77985    0.06213    0.37036    1.000
    H19      H        0.78780    0.06190    0.40230    1.000
    C47      C        0.80065    0.05093    0.34664    1.000
    C48      C        0.78895    0.05131    0.29936    1.000
    C49      C        0.93970    0.01310    0.45180    1.000
    C50      C        0.83720    0.04085    0.37285    1.000
    C51      C        0.84296    0.02189    0.41150    1.000
    H20      H        0.82450    0.01530    0.42040    1.000
    C52      C        0.87603    0.01274    0.43683    1.000
    H21      H        0.87990    0.99990    0.46290    1.000
    C53      C        0.90334    0.02255    0.42357    1.000
    C54      C        0.89758    0.04151    0.38500    1.000
    H22      H        0.91600    0.04810    0.37600    1.000
    C55      C        0.86451    0.05066    0.35960    1.000
    H23      H        0.86060    0.06350    0.33350    1.000
    C56      C        0.68910    0.23670    0.95170    1.000
    C57      C        0.58721    0.20941    0.87360    1.000
    C58      C        0.59328    0.22838    0.91230    1.000
    H24      H        0.57500    0.23510    0.92150    1.000
    C59      C        0.62645    0.23749    0.93725    1.000
    H25      H        0.63060    0.25030    0.96340    1.000
    C60      C        0.65354    0.22762    0.92360    1.000
    C61      C        0.64747    0.20865    0.88490    1.000
    H26      H        0.66580    0.20200    0.87570    1.000
    C62      C        0.61431    0.19954    0.85994    1.000
    H27      H        0.61020    0.18670    0.83380    1.000
    O1       O        0.66520    0.89666    0.06000    1.000
    C63      C        0.50642    0.18777    0.77574    1.000
    C64      C        0.48597    0.17550    0.79930    1.000
    C65      C        0.49776    0.17534    0.84660    1.000
    C66      C        0.53000    0.18744    0.87031    1.000
    H28      H        0.53800    0.18730    0.90230    1.000
    C67      C        0.55045    0.19971    0.84680    1.000
    C68      C        0.53866    0.19987    0.79950    1.000
    O2       O        0.62355    0.92765    0.01500    1.000
    C69      C        0.72450    0.08424    0.37301    1.000
    C70      C        0.73787    0.10310    0.41170    1.000
    H29      H        0.76080    0.10980    0.42090    1.000
    C71      C        0.71733    0.11211    0.43700    1.000
    H30      H        0.72640    0.12490    0.46320    1.000
    C72      C        0.68342    0.10226    0.42351    1.000
    C73      C        0.67004    0.08340    0.38480    1.000
    H31      H        0.64710    0.07670    0.37560    1.000
    C74      C        0.69059    0.07439    0.35952    1.000
    H32      H        0.68150    0.06160    0.33330    1.000
    O3       O        0.08434    0.64652    0.44000    1.000
    C75      C        0.47434    0.16571    0.87302    1.000
    C76      C        0.44046    0.17566    0.85974    1.000
    H33      H        0.43140    0.18860    0.83370    1.000
    C77      C        0.41995    0.16654    0.88500    1.000
    H34      H        0.39700    0.17330    0.87600    1.000
    C78      C        0.43331    0.14746    0.92351    1.000
    C79      C        0.46719    0.13751    0.93679    1.000
    H35      H        0.47620    0.12460    0.96280    1.000
    C80      C        0.48770    0.14663    0.91160    1.000
    H36      H        0.51060    0.13990    0.92050    1.000
    O4       O        0.12655    0.67762    0.48400    1.000
    O5       O        0.63082    0.09977    0.43940    1.000
    O6       O        0.67389    0.13044    0.48460    1.000
    O7       O        0.42361    0.11946    0.98400    1.000
    O8       O        0.38205    0.15003    0.94010    1.000
    O9       O        0.69334    0.25559    0.98430    1.000
    O10      O        0.71340    0.22460    0.93970    1.000
    O11      O        0.74013    0.22818    0.06040    1.000
    O12      O        0.75948    0.19747    0.01570    1.000
    O13      O        0.94355    0.99453    0.48500    1.000
    O14      O        0.96394    0.02511    0.43940    1.000
    O15      O        0.99036    0.94726    0.48430    1.000
    O16      O        0.01014    0.97834    0.43931    1.000
    O17      O        0.80910    0.03810    0.27620    1.000
    O18      O        0.76740    0.11560    0.22520    1.000
    O19      O        0.70350    0.08570    0.27530    1.000
    O20      O        0.71940    0.00960    0.22420    1.000
    O21      O        0.98290    0.86600    0.27620    1.000
    O22      O        0.02660    0.75830    0.27480    1.000
    O23      O        0.56000    0.21060    0.77570    1.000
    O24      O        0.04690    0.33560    0.22410    1.000
    O25      O        0.07600    0.41530    0.24200    1.000
    O26      O        0.03680    0.48280    0.23140    1.000
    O27      O        0.55930    0.28940    0.70510    1.000
    O28      O        0.54900    0.37360    0.75530    1.000
    O29      O        0.09320    0.73330    0.25590    1.000
    O30      O        0.93840    0.91520    0.23900    1.000
    O31      O        0.84840    0.00860    0.23590    1.000
    O32      O        0.87530    0.10310    0.25160    1.000
    O33      O        0.71460    0.18400    0.24470    1.000
    O34      O        0.65030    0.11820    0.28190    1.000
    O35      O        0.63470    0.02100    0.26170    1.000
    O36      O        0.69540    0.94940    0.24060    1.000
    O37      O        0.78360    0.93560    0.24310    1.000
    C81      C        0.80890    0.00490    0.27920    1.000
    C82      C        0.80130    0.11700    0.22750    1.000
    C83      C        0.70250    0.11910    0.27380    1.000
    C84      C        0.68660    0.00970    0.22800    1.000
    C85      C        0.94880    0.86190    0.27470    1.000
    C86      C        0.06040    0.75760    0.27540    1.000
    C87      C        0.55930    0.24400    0.76480    1.000
    C88      C        0.04860    0.36910    0.22040    1.000
    C89      C        0.08020    0.37940    0.25090    1.000
    C90      C        0.04380    0.42730    0.24820    1.000
    C91      C        0.03340    0.45040    0.20860    1.000
    C92      C        0.99930    0.47770    0.22580    1.000
    C93      C        0.55540    0.25530    0.71970    1.000
    C94      C        0.55600    0.31720    0.73360    1.000
    C95      C        0.53420    0.34700    0.72030    1.000
    C96      C        0.51730    0.39350    0.74720    1.000
    C97      C        0.09490    0.76480    0.28130    1.000
    C98      C        0.93170    0.89160    0.26700    1.000
    C99      C        0.82360    0.98910    0.25060    1.000
    C100     C        0.87230    0.03940    0.25190    1.000
    C101     C        0.89210    0.07020    0.26450    1.000
    C102     C        0.85720    0.13230    0.25970    1.000
    C103     C        0.82080    0.14470    0.24280    1.000
    C104     C        0.67660    0.17090    0.24190    1.000
    C105     C        0.67010    0.13290    0.25650    1.000
    C106     C        0.62670    0.08730    0.27350    1.000
    C107     C        0.64290    0.05360    0.28390    1.000
    C108     C        0.65320    0.99100    0.26200    1.000
    C109     C        0.67800    0.97910    0.24080    1.000
    C110     C        0.72660    0.92860    0.25070    1.000
    C111     C        0.75570    0.92850    0.25790    1.000
    C112     C        0.80400    0.95960    0.22940    1.000
    C113     C        0.75870    0.14350    0.24940    1.000
    C114     C        0.72530    0.15610    0.23450    1.000
    C115     C        0.67630    0.06080    0.25900    1.000
    C116     C        0.66990    0.03010    0.27530    1.000
    C117     C        0.76590    0.96590    0.24000    1.000
    C118     C        0.73760    0.98080    0.24990    1.000
    C119     C        0.83290    0.05810    0.26070    1.000
    C120     C        0.85320    0.08720    0.27280    1.000
    Cu5      Cu       0.48836    0.48185    0.52629    1.000
    Cu6      Cu       0.23847    0.76819    0.02631    1.000
    Cu7      Cu       0.14982    0.35682    0.02637    1.000
    Cu8      Cu       0.10028    0.39317    0.97376    1.000
    C121     C        0.50677    0.31251    0.27559    1.000
    C122     C        0.50059    0.33898    0.29910    1.000
    C123     C        0.51227    0.33906    0.34638    1.000
    C124     C        0.53014    0.31266    0.37016    1.000
    H37      H        0.53800    0.31270    0.40210    1.000
    C125     C        0.53632    0.28618    0.34666    1.000
    C126     C        0.52463    0.28610    0.29937    1.000
    C127     C        0.50100    0.45140    0.45230    1.000
    C128     C        0.55272    0.25626    0.37300    1.000
    C129     C        0.53951    0.22566    0.35962    1.000
    H38      H        0.52010    0.22310    0.33360    1.000
    C130     C        0.55499    0.19879    0.38470    1.000
    H39      H        0.54610    0.17810    0.37570    1.000
    C131     C        0.58369    0.20251    0.42320    1.000
    C132     C        0.59691    0.23311    0.43659    1.000
    H40      H        0.61630    0.23560    0.46260    1.000
    C133     C        0.58142    0.25999    0.41150    1.000
    H41      H        0.59040    0.28070    0.42060    1.000
    C134     C        0.59900    0.17330    0.45130    1.000
    C135     C        0.50874    0.36837    0.37300    1.000
    C136     C        0.51542    0.39890    0.35952    1.000
    H42      H        0.52170    0.40130    0.33340    1.000
    C137     C        0.51283    0.42584    0.38470    1.000
    H43      H        0.51730    0.44650    0.37560    1.000
    C138     C        0.50356    0.42225    0.42340    1.000
    C139     C        0.49688    0.39172    0.43689    1.000
    H44      H        0.49060    0.38930    0.46310    1.000
    C140     C        0.49947    0.36478    0.41170    1.000
    H45      H        0.49500    0.34410    0.42080    1.000
    C141     C        0.15050    0.42270    0.04810    1.000
    C142     C        0.23695    0.58919    0.15300    1.000
    C143     C        0.22000    0.56228    0.12957    1.000
    H46      H        0.21200    0.56220    0.09760    1.000
    C144     C        0.21494    0.53549    0.15340    1.000
    C145     C        0.22682    0.53562    0.20070    1.000
    C146     C        0.24377    0.56253    0.22414    1.000
    C147     C        0.24884    0.58932    0.20030    1.000
    C148     C        0.24900    0.70100    0.04780    1.000
    C149     C        0.24077    0.61898    0.12658    1.000
    C150     C        0.25006    0.61529    0.08790    1.000
    H47      H        0.25430    0.59460    0.07870    1.000
    C151     C        0.25311    0.64221    0.06297    1.000
    H48      H        0.25940    0.63970    0.03680    1.000
    C152     C        0.24688    0.67282    0.07670    1.000
    C153     C        0.23759    0.67650    0.11530    1.000
    H49      H        0.23340    0.69720    0.12460    1.000
    C154     C        0.23454    0.64958    0.14028    1.000
    H50      H        0.22830    0.65210    0.16640    1.000
    C155     C        0.16100    0.61120    0.45130    1.000
    C156     C        0.19766    0.50627    0.12650    1.000
    C157     C        0.16906    0.50994    0.08790    1.000
    H51      H        0.16010    0.53060    0.07870    1.000
    C158     C        0.15363    0.48302    0.06286    1.000
    H52      H        0.13430    0.48550    0.03670    1.000
    C159     C        0.16681    0.45243    0.07640    1.000
    C160     C        0.19542    0.44877    0.11510    1.000
    H53      H        0.20430    0.42810    0.12430    1.000
    C161     C        0.21085    0.47569    0.14009    1.000
    H54      H        0.23020    0.47320    0.16620    1.000
    C162     C        0.91140    0.63800    0.95090    1.000
    C163     C        0.25645    0.56290    0.27580    1.000
    C164     C        0.23564    0.57410    0.29952    1.000
    C165     C        0.24734    0.57371    0.34680    1.000
    C166     C        0.27985    0.56213    0.37036    1.000
    H55      H        0.28780    0.56190    0.40230    1.000
    C167     C        0.30065    0.55093    0.34664    1.000
    C168     C        0.28895    0.55131    0.29936    1.000
    C169     C        0.43970    0.51310    0.45180    1.000
    C170     C        0.33720    0.54085    0.37285    1.000
    C171     C        0.34296    0.52189    0.41150    1.000
    H56      H        0.32450    0.51530    0.42040    1.000
    C172     C        0.37603    0.51274    0.43683    1.000
    H57      H        0.37990    0.49990    0.46290    1.000
    C173     C        0.40334    0.52255    0.42357    1.000
    C174     C        0.39758    0.54151    0.38500    1.000
    H58      H        0.41600    0.54810    0.37600    1.000
    C175     C        0.36451    0.55066    0.35960    1.000
    H59      H        0.36060    0.56350    0.33350    1.000
    C176     C        0.18910    0.73670    0.95170    1.000
    C177     C        0.08721    0.70941    0.87360    1.000
    C178     C        0.09328    0.72838    0.91230    1.000
    H60      H        0.07500    0.73510    0.92150    1.000
    C179     C        0.12645    0.73749    0.93725    1.000
    H61      H        0.13060    0.75030    0.96340    1.000
    C180     C        0.15354    0.72762    0.92360    1.000
    C181     C        0.14747    0.70865    0.88490    1.000
    H62      H        0.16580    0.70200    0.87570    1.000
    C182     C        0.11431    0.69954    0.85994    1.000
    H63      H        0.11020    0.68670    0.83380    1.000
    O38      O        0.16520    0.39666    0.06000    1.000
    C183     C        0.00642    0.68777    0.77574    1.000
    C184     C        0.98597    0.67550    0.79930    1.000
    C185     C        0.99776    0.67534    0.84660    1.000
    C186     C        0.03000    0.68744    0.87031    1.000
    H64      H        0.03800    0.68730    0.90230    1.000
    C187     C        0.05045    0.69971    0.84680    1.000
    C188     C        0.03866    0.69987    0.79950    1.000
    O39      O        0.12355    0.42765    0.01500    1.000
    C189     C        0.22450    0.58424    0.37301    1.000
    C190     C        0.23787    0.60310    0.41170    1.000
    H65      H        0.26080    0.60980    0.42090    1.000
    C191     C        0.21733    0.61211    0.43700    1.000
    H66      H        0.22640    0.62490    0.46320    1.000
    C192     C        0.18342    0.60226    0.42351    1.000
    C193     C        0.17004    0.58340    0.38480    1.000
    H67      H        0.14710    0.57670    0.37560    1.000
    C194     C        0.19059    0.57439    0.35952    1.000
    H68      H        0.18150    0.56160    0.33330    1.000
    O40      O        0.58434    0.14652    0.44000    1.000
    C195     C        0.97434    0.66571    0.87302    1.000
    C196     C        0.94046    0.67566    0.85974    1.000
    H69      H        0.93140    0.68860    0.83370    1.000
    C197     C        0.91995    0.66654    0.88500    1.000
    H70      H        0.89700    0.67330    0.87600    1.000
    C198     C        0.93331    0.64746    0.92351    1.000
    C199     C        0.96719    0.63751    0.93679    1.000
    H71      H        0.97620    0.62460    0.96280    1.000
    C200     C        0.98770    0.64663    0.91160    1.000
    H72      H        0.01060    0.63990    0.92050    1.000
    O41      O        0.62655    0.17762    0.48400    1.000
    O42      O        0.13082    0.59977    0.43940    1.000
    O43      O        0.17389    0.63044    0.48460    1.000
    O44      O        0.92361    0.61946    0.98400    1.000
    O45      O        0.88205    0.65003    0.94010    1.000
    O46      O        0.19334    0.75559    0.98430    1.000
    O47      O        0.21340    0.72460    0.93970    1.000
    O48      O        0.24013    0.72818    0.06040    1.000
    O49      O        0.25948    0.69747    0.01570    1.000
    O50      O        0.44355    0.49453    0.48500    1.000
    O51      O        0.46394    0.52511    0.43940    1.000
    O52      O        0.49036    0.44726    0.48430    1.000
    O53      O        0.51014    0.47834    0.43931    1.000
    O54      O        0.30910    0.53810    0.27620    1.000
    O55      O        0.26740    0.61560    0.22520    1.000
    O56      O        0.20350    0.58570    0.27530    1.000
    O57      O        0.21940    0.50960    0.22420    1.000
    O58      O        0.48290    0.36600    0.27620    1.000
    O59      O        0.52660    0.25830    0.27480    1.000
    O60      O        0.06000    0.71060    0.77570    1.000
    O61      O        0.54690    0.83560    0.22410    1.000
    O62      O        0.57600    0.91530    0.24200    1.000
    O63      O        0.53680    0.98280    0.23140    1.000
    O64      O        0.05930    0.78940    0.70510    1.000
    O65      O        0.04900    0.87360    0.75530    1.000
    O66      O        0.59320    0.23330    0.25590    1.000
    O67      O        0.43840    0.41520    0.23900    1.000
    O68      O        0.34840    0.50860    0.23590    1.000
    O69      O        0.37530    0.60310    0.25160    1.000
    O70      O        0.21460    0.68400    0.24470    1.000
    O71      O        0.15030    0.61820    0.28190    1.000
    O72      O        0.13470    0.52100    0.26170    1.000
    O73      O        0.19540    0.44940    0.24060    1.000
    O74      O        0.28360    0.43560    0.24310    1.000
    C201     C        0.30890    0.50490    0.27920    1.000
    C202     C        0.30130    0.61700    0.22750    1.000
    C203     C        0.20250    0.61910    0.27380    1.000
    C204     C        0.18660    0.50970    0.22800    1.000
    C205     C        0.44880    0.36190    0.27470    1.000
    C206     C        0.56040    0.25760    0.27540    1.000
    C207     C        0.05930    0.74400    0.76480    1.000
    C208     C        0.54860    0.86910    0.22040    1.000
    C209     C        0.58020    0.87940    0.25090    1.000
    C210     C        0.54380    0.92730    0.24820    1.000
    C211     C        0.53340    0.95040    0.20860    1.000
    C212     C        0.49930    0.97770    0.22580    1.000
    C213     C        0.05540    0.75530    0.71970    1.000
    C214     C        0.05600    0.81720    0.73360    1.000
    C215     C        0.03420    0.84700    0.72030    1.000
    C216     C        0.01730    0.89350    0.74720    1.000
    C217     C        0.59490    0.26480    0.28130    1.000
    C218     C        0.43170    0.39160    0.26700    1.000
    C219     C        0.32360    0.48910    0.25060    1.000
    C220     C        0.37230    0.53940    0.25190    1.000
    C221     C        0.39210    0.57020    0.26450    1.000
    C222     C        0.35720    0.63230    0.25970    1.000
    C223     C        0.32080    0.64470    0.24280    1.000
    C224     C        0.17660    0.67090    0.24190    1.000
    C225     C        0.17010    0.63290    0.25650    1.000
    C226     C        0.12670    0.58730    0.27350    1.000
    C227     C        0.14290    0.55360    0.28390    1.000
    C228     C        0.15320    0.49100    0.26200    1.000
    C229     C        0.17800    0.47910    0.24080    1.000
    C230     C        0.22660    0.42860    0.25070    1.000
    C231     C        0.25570    0.42850    0.25790    1.000
    C232     C        0.30400    0.45960    0.22940    1.000
    C233     C        0.25870    0.64350    0.24940    1.000
    C234     C        0.22530    0.65610    0.23450    1.000
    C235     C        0.17630    0.56080    0.25900    1.000
    C236     C        0.16990    0.53010    0.27530    1.000
    C237     C        0.26590    0.46590    0.24000    1.000
    C238     C        0.23760    0.48080    0.24990    1.000
    C239     C        0.33290    0.55810    0.26070    1.000
    C240     C        0.35320    0.58720    0.27280    1.000
    Cu9      Cu       0.01164    0.98185    0.97371    1.000
    Cu10     Cu       0.26153    0.26819    0.47369    1.000
    Cu11     Cu       0.35018    0.85682    0.47363    1.000
    Cu12     Cu       0.39972    0.89317    0.52624    1.000
    C241     C        0.99323    0.81251    0.22441    1.000
    C242     C        0.99941    0.83898    0.20090    1.000
    C243     C        0.98773    0.83906    0.15362    1.000
    C244     C        0.96986    0.81266    0.12984    1.000
    H73      H        0.96200    0.81270    0.09790    1.000
    C245     C        0.96368    0.78618    0.15334    1.000
    C246     C        0.97537    0.78610    0.20063    1.000
    C247     C        0.99900    0.95140    0.04770    1.000
    C248     C        0.94728    0.75626    0.12700    1.000
    C249     C        0.96049    0.72566    0.14038    1.000
    H74      H        0.97990    0.72310    0.16640    1.000
    C250     C        0.94501    0.69879    0.11530    1.000
    H75      H        0.95390    0.67810    0.12430    1.000
    C251     C        0.91631    0.70251    0.07680    1.000
    C252     C        0.90309    0.73311    0.06341    1.000
    H76      H        0.88370    0.73560    0.03740    1.000
    C253     C        0.91858    0.75999    0.08850    1.000
    H77      H        0.90960    0.78070    0.07940    1.000
    C254     C        0.90100    0.67330    0.04870    1.000
    C255     C        0.99126    0.86837    0.12700    1.000
    C256     C        0.98458    0.89890    0.14048    1.000
    H78      H        0.97830    0.90130    0.16660    1.000
    C257     C        0.98717    0.92584    0.11530    1.000
    H79      H        0.98270    0.94650    0.12440    1.000
    C258     C        0.99644    0.92225    0.07660    1.000
    C259     C        0.00312    0.89172    0.06311    1.000
    H80      H        0.00940    0.88930    0.03690    1.000
    C260     C        0.00053    0.86478    0.08830    1.000
    H81      H        0.00500    0.84410    0.07920    1.000
    C261     C        0.34950    0.92270    0.45190    1.000
    C262     C        0.26305    0.08919    0.34700    1.000
    C263     C        0.28000    0.06228    0.37043    1.000
    H82      H        0.28800    0.06220    0.40240    1.000
    C264     C        0.28506    0.03549    0.34660    1.000
    C265     C        0.27318    0.03562    0.29930    1.000
    C266     C        0.25623    0.06253    0.27586    1.000
    C267     C        0.25116    0.08932    0.29970    1.000
    C268     C        0.25100    0.20100    0.45220    1.000
    C269     C        0.25923    0.11898    0.37342    1.000
    C270     C        0.24994    0.11529    0.41210    1.000
    H83      H        0.24570    0.09460    0.42130    1.000
    C271     C        0.24689    0.14221    0.43703    1.000
    H84      H        0.24060    0.13970    0.46320    1.000
    C272     C        0.25312    0.17282    0.42330    1.000
    C273     C        0.26241    0.17650    0.38470    1.000
    H85      H        0.26660    0.19720    0.37540    1.000
    C274     C        0.26546    0.14958    0.35972    1.000
    H86      H        0.27170    0.15210    0.33360    1.000
    C275     C        0.33900    0.11120    0.04870    1.000
    C276     C        0.30234    0.00627    0.37350    1.000
    C277     C        0.33094    0.00994    0.41210    1.000
    H87      H        0.33990    0.03060    0.42130    1.000
    C278     C        0.34637    0.98302    0.43714    1.000
    H88      H        0.36570    0.98550    0.46330    1.000
    C279     C        0.33319    0.95243    0.42360    1.000
    C280     C        0.30458    0.94877    0.38490    1.000
    H89      H        0.29570    0.92810    0.37570    1.000
    C281     C        0.28915    0.97569    0.35991    1.000
    H90      H        0.26980    0.97320    0.33380    1.000
    C282     C        0.58860    0.13800    0.54910    1.000
    C283     C        0.24355    0.06290    0.22420    1.000
    C284     C        0.26436    0.07410    0.20048    1.000
    C285     C        0.25266    0.07371    0.15320    1.000
    C286     C        0.22015    0.06213    0.12964    1.000
    H91      H        0.21220    0.06190    0.09770    1.000
    C287     C        0.19935    0.05093    0.15336    1.000
    C288     C        0.21105    0.05131    0.20064    1.000
    C289     C        0.06030    0.01310    0.04820    1.000
    C290     C        0.16280    0.04085    0.12715    1.000
    C291     C        0.15704    0.02189    0.08850    1.000
    H92      H        0.17550    0.01530    0.07960    1.000
    C292     C        0.12397    0.01274    0.06317    1.000
    H93      H        0.12010    0.99990    0.03710    1.000
    C293     C        0.09666    0.02255    0.07643    1.000
    C294     C        0.10242    0.04151    0.11500    1.000
    H94      H        0.08400    0.04810    0.12400    1.000
    C295     C        0.13549    0.05066    0.14040    1.000
    H95      H        0.13940    0.06350    0.16650    1.000
    C296     C        0.31090    0.23670    0.54830    1.000
    C297     C        0.41279    0.20941    0.62640    1.000
    C298     C        0.40672    0.22838    0.58770    1.000
    H96      H        0.42500    0.23510    0.57850    1.000
    C299     C        0.37355    0.23749    0.56275    1.000
    H97      H        0.36940    0.25030    0.53660    1.000
    C300     C        0.34646    0.22762    0.57640    1.000
    C301     C        0.35253    0.20865    0.61510    1.000
    H98      H        0.33420    0.20200    0.62430    1.000
    C302     C        0.38569    0.19954    0.64006    1.000
    H99      H        0.38980    0.18670    0.66620    1.000
    O75      O        0.33480    0.89666    0.44000    1.000
    C303     C        0.49358    0.18777    0.72426    1.000
    C304     C        0.51403    0.17550    0.70070    1.000
    C305     C        0.50224    0.17534    0.65340    1.000
    C306     C        0.47000    0.18744    0.62969    1.000
    H100     H        0.46200    0.18730    0.59770    1.000
    C307     C        0.44955    0.19971    0.65320    1.000
    C308     C        0.46134    0.19987    0.70050    1.000
    O76      O        0.37645    0.92765    0.48500    1.000
    C309     C        0.27550    0.08424    0.12699    1.000
    C310     C        0.26213    0.10310    0.08830    1.000
    H101     H        0.23920    0.10980    0.07910    1.000
    C311     C        0.28267    0.11211    0.06300    1.000
    H102     H        0.27360    0.12490    0.03680    1.000
    C312     C        0.31658    0.10226    0.07649    1.000
    C313     C        0.32996    0.08340    0.11520    1.000
    H103     H        0.35290    0.07670    0.12440    1.000
    C314     C        0.30941    0.07439    0.14048    1.000
    H104     H        0.31850    0.06160    0.16670    1.000
    O77      O        0.91566    0.64652    0.06000    1.000
    C315     C        0.52566    0.16571    0.62698    1.000
    C316     C        0.55954    0.17566    0.64026    1.000
    H105     H        0.56860    0.18860    0.66630    1.000
    C317     C        0.58005    0.16654    0.61500    1.000
    H106     H        0.60300    0.17330    0.62400    1.000
    C318     C        0.56669    0.14746    0.57649    1.000
    C319     C        0.53281    0.13751    0.56321    1.000
    H107     H        0.52380    0.12460    0.53720    1.000
    C320     C        0.51230    0.14663    0.58840    1.000
    H108     H        0.48940    0.13990    0.57950    1.000
    O78      O        0.87345    0.67762    0.01600    1.000
    O79      O        0.36918    0.09977    0.06060    1.000
    O80      O        0.32611    0.13044    0.01540    1.000
    O81      O        0.57639    0.11946    0.51600    1.000
    O82      O        0.61795    0.15003    0.55990    1.000
    O83      O        0.30666    0.25559    0.51570    1.000
    O84      O        0.28660    0.22460    0.56030    1.000
    O85      O        0.25987    0.22818    0.43960    1.000
    O86      O        0.24052    0.19747    0.48430    1.000
    O87      O        0.05645    0.99453    0.01500    1.000
    O88      O        0.03606    0.02511    0.06060    1.000
    O89      O        0.00964    0.94726    0.01570    1.000
    O90      O        0.98986    0.97834    0.06069    1.000
    O91      O        0.19090    0.03810    0.22380    1.000
    O92      O        0.23260    0.11560    0.27480    1.000
    O93      O        0.29650    0.08570    0.22470    1.000
    O94      O        0.28060    0.00960    0.27580    1.000
    O95      O        0.01710    0.86600    0.22380    1.000
    O96      O        0.97340    0.75830    0.22520    1.000
    O97      O        0.44000    0.21060    0.72430    1.000
    O98      O        0.95310    0.33560    0.27590    1.000
    O99      O        0.92400    0.41530    0.25800    1.000
    O100     O        0.96320    0.48280    0.26860    1.000
    O101     O        0.44070    0.28940    0.79490    1.000
    O102     O        0.45100    0.37360    0.74470    1.000
    O103     O        0.90680    0.73330    0.24410    1.000
    O104     O        0.06160    0.91520    0.26100    1.000
    O105     O        0.15160    0.00860    0.26410    1.000
    O106     O        0.12470    0.10310    0.24840    1.000
    O107     O        0.28540    0.18400    0.25530    1.000
    O108     O        0.34970    0.11820    0.21810    1.000
    O109     O        0.36530    0.02100    0.23830    1.000
    O110     O        0.30460    0.94940    0.25940    1.000
    O111     O        0.21640    0.93560    0.25690    1.000
    C321     C        0.19110    0.00490    0.22080    1.000
    C322     C        0.19870    0.11700    0.27250    1.000
    C323     C        0.29750    0.11910    0.22620    1.000
    C324     C        0.31340    0.00970    0.27200    1.000
    C325     C        0.05120    0.86190    0.22530    1.000
    C326     C        0.93960    0.75760    0.22460    1.000
    C327     C        0.44070    0.24400    0.73520    1.000
    C328     C        0.95140    0.36910    0.27960    1.000
    C329     C        0.91980    0.37940    0.24910    1.000
    C330     C        0.95620    0.42730    0.25180    1.000
    C331     C        0.96660    0.45040    0.29140    1.000
    C332     C        0.00070    0.47770    0.27420    1.000
    C333     C        0.44460    0.25530    0.78030    1.000
    C334     C        0.44400    0.31720    0.76640    1.000
    C335     C        0.46580    0.34700    0.77970    1.000
    C336     C        0.48270    0.39350    0.75280    1.000
    C337     C        0.90510    0.76480    0.21870    1.000
    C338     C        0.06830    0.89160    0.23300    1.000
    C339     C        0.17640    0.98910    0.24940    1.000
    C340     C        0.12770    0.03940    0.24810    1.000
    C341     C        0.10790    0.07020    0.23550    1.000
    C342     C        0.14280    0.13230    0.24030    1.000
    C343     C        0.17920    0.14470    0.25720    1.000
    C344     C        0.32340    0.17090    0.25810    1.000
    C345     C        0.32990    0.13290    0.24350    1.000
    C346     C        0.37330    0.08730    0.22650    1.000
    C347     C        0.35710    0.05360    0.21610    1.000
    C348     C        0.34680    0.99100    0.23800    1.000
    C349     C        0.32200    0.97910    0.25920    1.000
    C350     C        0.27340    0.92860    0.24930    1.000
    C351     C        0.24430    0.92850    0.24210    1.000
    C352     C        0.19600    0.95960    0.27060    1.000
    C353     C        0.24130    0.14350    0.25060    1.000
    C354     C        0.27470    0.15610    0.26550    1.000
    C355     C        0.32370    0.06080    0.24100    1.000
    C356     C        0.33010    0.03010    0.22470    1.000
    C357     C        0.23410    0.96590    0.26000    1.000
    C358     C        0.26240    0.98080    0.25010    1.000
    C359     C        0.16710    0.05810    0.23930    1.000
    C360     C        0.14680    0.08720    0.22720    1.000
    Cu13     Cu       0.51164    0.48185    0.97371    1.000
    Cu14     Cu       0.76153    0.76819    0.47369    1.000
    Cu15     Cu       0.85018    0.35682    0.47363    1.000
    Cu16     Cu       0.89972    0.39317    0.52624    1.000
    C361     C        0.49323    0.31251    0.22441    1.000
    C362     C        0.49941    0.33898    0.20090    1.000
    C363     C        0.48773    0.33906    0.15362    1.000
    C364     C        0.46986    0.31266    0.12984    1.000
    H109     H        0.46200    0.31270    0.09790    1.000
    C365     C        0.46368    0.28618    0.15334    1.000
    C366     C        0.47537    0.28610    0.20063    1.000
    C367     C        0.49900    0.45140    0.04770    1.000
    C368     C        0.44728    0.25626    0.12700    1.000
    C369     C        0.46049    0.22566    0.14038    1.000
    H110     H        0.47990    0.22310    0.16640    1.000
    C370     C        0.44501    0.19879    0.11530    1.000
    H111     H        0.45390    0.17810    0.12430    1.000
    C371     C        0.41631    0.20251    0.07680    1.000
    C372     C        0.40309    0.23311    0.06341    1.000
    H112     H        0.38370    0.23560    0.03740    1.000
    C373     C        0.41858    0.25999    0.08850    1.000
    H113     H        0.40960    0.28070    0.07940    1.000
    C374     C        0.40100    0.17330    0.04870    1.000
    C375     C        0.49126    0.36837    0.12700    1.000
    C376     C        0.48458    0.39890    0.14048    1.000
    H114     H        0.47830    0.40130    0.16660    1.000
    C377     C        0.48717    0.42584    0.11530    1.000
    H115     H        0.48270    0.44650    0.12440    1.000
    C378     C        0.49644    0.42225    0.07660    1.000
    C379     C        0.50312    0.39172    0.06311    1.000
    H116     H        0.50940    0.38930    0.03690    1.000
    C380     C        0.50053    0.36478    0.08830    1.000
    H117     H        0.50500    0.34410    0.07920    1.000
    C381     C        0.84950    0.42270    0.45190    1.000
    C382     C        0.76305    0.58919    0.34700    1.000
    C383     C        0.78000    0.56228    0.37043    1.000
    H118     H        0.78800    0.56220    0.40240    1.000
    C384     C        0.78506    0.53549    0.34660    1.000
    C385     C        0.77318    0.53562    0.29930    1.000
    C386     C        0.75623    0.56253    0.27586    1.000
    C387     C        0.75116    0.58932    0.29970    1.000
    C388     C        0.75100    0.70100    0.45220    1.000
    C389     C        0.75923    0.61898    0.37342    1.000
    C390     C        0.74994    0.61529    0.41210    1.000
    H119     H        0.74570    0.59460    0.42130    1.000
    C391     C        0.74689    0.64221    0.43703    1.000
    H120     H        0.74060    0.63970    0.46320    1.000
    C392     C        0.75312    0.67282    0.42330    1.000
    C393     C        0.76241    0.67650    0.38470    1.000
    H121     H        0.76660    0.69720    0.37540    1.000
    C394     C        0.76546    0.64958    0.35972    1.000
    H122     H        0.77170    0.65210    0.33360    1.000
    C395     C        0.83900    0.61120    0.04870    1.000
    C396     C        0.80234    0.50627    0.37350    1.000
    C397     C        0.83094    0.50994    0.41210    1.000
    H123     H        0.83990    0.53060    0.42130    1.000
    C398     C        0.84637    0.48302    0.43714    1.000
    H124     H        0.86570    0.48550    0.46330    1.000
    C399     C        0.83319    0.45243    0.42360    1.000
    C400     C        0.80458    0.44877    0.38490    1.000
    H125     H        0.79570    0.42810    0.37570    1.000
    C401     C        0.78915    0.47569    0.35991    1.000
    H126     H        0.76980    0.47320    0.33380    1.000
    C402     C        0.08860    0.63800    0.54910    1.000
    C403     C        0.74355    0.56290    0.22420    1.000
    C404     C        0.76436    0.57410    0.20048    1.000
    C405     C        0.75266    0.57371    0.15320    1.000
    C406     C        0.72015    0.56213    0.12964    1.000
    H127     H        0.71220    0.56190    0.09770    1.000
    C407     C        0.69935    0.55093    0.15336    1.000
    C408     C        0.71105    0.55131    0.20064    1.000
    C409     C        0.56030    0.51310    0.04820    1.000
    C410     C        0.66280    0.54085    0.12715    1.000
    C411     C        0.65704    0.52189    0.08850    1.000
    H128     H        0.67550    0.51530    0.07960    1.000
    C412     C        0.62397    0.51274    0.06317    1.000
    H129     H        0.62010    0.49990    0.03710    1.000
    C413     C        0.59666    0.52255    0.07643    1.000
    C414     C        0.60242    0.54151    0.11500    1.000
    H130     H        0.58400    0.54810    0.12400    1.000
    C415     C        0.63549    0.55066    0.14040    1.000
    H131     H        0.63940    0.56350    0.16650    1.000
    C416     C        0.81090    0.73670    0.54830    1.000
    C417     C        0.91279    0.70941    0.62640    1.000
    C418     C        0.90672    0.72838    0.58770    1.000
    H132     H        0.92500    0.73510    0.57850    1.000
    C419     C        0.87355    0.73749    0.56275    1.000
    H133     H        0.86940    0.75030    0.53660    1.000
    C420     C        0.84646    0.72762    0.57640    1.000
    C421     C        0.85253    0.70865    0.61510    1.000
    H134     H        0.83420    0.70200    0.62430    1.000
    C422     C        0.88569    0.69954    0.64006    1.000
    H135     H        0.88980    0.68670    0.66620    1.000
    O112     O        0.83480    0.39666    0.44000    1.000
    C423     C        0.99358    0.68777    0.72426    1.000
    C424     C        0.01403    0.67550    0.70070    1.000
    C425     C        0.00224    0.67534    0.65340    1.000
    C426     C        0.97000    0.68744    0.62969    1.000
    H136     H        0.96200    0.68730    0.59770    1.000
    C427     C        0.94955    0.69971    0.65320    1.000
    C428     C        0.96134    0.69987    0.70050    1.000
    O113     O        0.87645    0.42765    0.48500    1.000
    C429     C        0.77550    0.58424    0.12699    1.000
    C430     C        0.76213    0.60310    0.08830    1.000
    H137     H        0.73920    0.60980    0.07910    1.000
    C431     C        0.78267    0.61211    0.06300    1.000
    H138     H        0.77360    0.62490    0.03680    1.000
    C432     C        0.81658    0.60226    0.07649    1.000
    C433     C        0.82996    0.58340    0.11520    1.000
    H139     H        0.85290    0.57670    0.12440    1.000
    C434     C        0.80941    0.57439    0.14048    1.000
    H140     H        0.81850    0.56160    0.16670    1.000
    O114     O        0.41566    0.14652    0.06000    1.000
    C435     C        0.02566    0.66571    0.62698    1.000
    C436     C        0.05954    0.67566    0.64026    1.000
    H141     H        0.06860    0.68860    0.66630    1.000
    C437     C        0.08005    0.66654    0.61500    1.000
    H142     H        0.10300    0.67330    0.62400    1.000
    C438     C        0.06669    0.64746    0.57649    1.000
    C439     C        0.03281    0.63751    0.56321    1.000
    H143     H        0.02380    0.62460    0.53720    1.000
    C440     C        0.01230    0.64663    0.58840    1.000
    H144     H        0.98940    0.63990    0.57950    1.000
    O115     O        0.37345    0.17762    0.01600    1.000
    O116     O        0.86918    0.59977    0.06060    1.000
    O117     O        0.82611    0.63044    0.01540    1.000
    O118     O        0.07639    0.61946    0.51600    1.000
    O119     O        0.11795    0.65003    0.55990    1.000
    O120     O        0.80666    0.75559    0.51570    1.000
    O121     O        0.78660    0.72460    0.56030    1.000
    O122     O        0.75987    0.72818    0.43960    1.000
    O123     O        0.74052    0.69747    0.48430    1.000
    O124     O        0.55645    0.49453    0.01500    1.000
    O125     O        0.53606    0.52511    0.06060    1.000
    O126     O        0.50964    0.44726    0.01570    1.000
    O127     O        0.48986    0.47834    0.06069    1.000
    O128     O        0.69090    0.53810    0.22380    1.000
    O129     O        0.73260    0.61560    0.27480    1.000
    O130     O        0.79650    0.58570    0.22470    1.000
    O131     O        0.78060    0.50960    0.27580    1.000
    O132     O        0.51710    0.36600    0.22380    1.000
    O133     O        0.47340    0.25830    0.22520    1.000
    O134     O        0.94000    0.71060    0.72430    1.000
    O135     O        0.45310    0.83560    0.27590    1.000
    O136     O        0.42400    0.91530    0.25800    1.000
    O137     O        0.46320    0.98280    0.26860    1.000
    O138     O        0.94070    0.78940    0.79490    1.000
    O139     O        0.95100    0.87360    0.74470    1.000
    O140     O        0.40680    0.23330    0.24410    1.000
    O141     O        0.56160    0.41520    0.26100    1.000
    O142     O        0.65160    0.50860    0.26410    1.000
    O143     O        0.62470    0.60310    0.24840    1.000
    O144     O        0.78540    0.68400    0.25530    1.000
    O145     O        0.84970    0.61820    0.21810    1.000
    O146     O        0.86530    0.52100    0.23830    1.000
    O147     O        0.80460    0.44940    0.25940    1.000
    O148     O        0.71640    0.43560    0.25690    1.000
    C441     C        0.69110    0.50490    0.22080    1.000
    C442     C        0.69870    0.61700    0.27250    1.000
    C443     C        0.79750    0.61910    0.22620    1.000
    C444     C        0.81340    0.50970    0.27200    1.000
    C445     C        0.55120    0.36190    0.22530    1.000
    C446     C        0.43960    0.25760    0.22460    1.000
    C447     C        0.94070    0.74400    0.73520    1.000
    C448     C        0.45140    0.86910    0.27960    1.000
    C449     C        0.41980    0.87940    0.24910    1.000
    C450     C        0.45620    0.92730    0.25180    1.000
    C451     C        0.46660    0.95040    0.29140    1.000
    C452     C        0.50070    0.97770    0.27420    1.000
    C453     C        0.94460    0.75530    0.78030    1.000
    C454     C        0.94400    0.81720    0.76640    1.000
    C455     C        0.96580    0.84700    0.77970    1.000
    C456     C        0.98270    0.89350    0.75280    1.000
    C457     C        0.40510    0.26480    0.21870    1.000
    C458     C        0.56830    0.39160    0.23300    1.000
    C459     C        0.67640    0.48910    0.24940    1.000
    C460     C        0.62770    0.53940    0.24810    1.000
    C461     C        0.60790    0.57020    0.23550    1.000
    C462     C        0.64280    0.63230    0.24030    1.000
    C463     C        0.67920    0.64470    0.25720    1.000
    C464     C        0.82340    0.67090    0.25810    1.000
    C465     C        0.82990    0.63290    0.24350    1.000
    C466     C        0.87330    0.58730    0.22650    1.000
    C467     C        0.85710    0.55360    0.21610    1.000
    C468     C        0.84680    0.49100    0.23800    1.000
    C469     C        0.82200    0.47910    0.25920    1.000
    C470     C        0.77340    0.42860    0.24930    1.000
    C471     C        0.74430    0.42850    0.24210    1.000
    C472     C        0.69600    0.45960    0.27060    1.000
    C473     C        0.74130    0.64350    0.25060    1.000
    C474     C        0.77470    0.65610    0.26550    1.000
    C475     C        0.82370    0.56080    0.24100    1.000
    C476     C        0.83010    0.53010    0.22470    1.000
    C477     C        0.73410    0.46590    0.26000    1.000
    C478     C        0.76240    0.48080    0.25010    1.000
    C479     C        0.66710    0.55810    0.23930    1.000
    C480     C        0.64680    0.58720    0.22720    1.000
    Cu17     Cu       0.01164    0.01815    0.47371    1.000
    Cu18     Cu       0.26153    0.73181    0.97369    1.000
    Cu19     Cu       0.35018    0.14318    0.97363    1.000
    Cu20     Cu       0.39972    0.10683    0.02624    1.000
    C481     C        0.99323    0.18749    0.72441    1.000
    C482     C        0.99941    0.16102    0.70090    1.000
    C483     C        0.98773    0.16094    0.65362    1.000
    C484     C        0.96986    0.18734    0.62984    1.000
    H145     H        0.96200    0.18730    0.59790    1.000
    C485     C        0.96368    0.21382    0.65334    1.000
    C486     C        0.97537    0.21390    0.70063    1.000
    C487     C        0.99900    0.04860    0.54770    1.000
    C488     C        0.94728    0.24374    0.62700    1.000
    C489     C        0.96049    0.27434    0.64038    1.000
    H146     H        0.97990    0.27690    0.66640    1.000
    C490     C        0.94501    0.30121    0.61530    1.000
    H147     H        0.95390    0.32190    0.62430    1.000
    C491     C        0.91631    0.29749    0.57680    1.000
    C492     C        0.90309    0.26689    0.56341    1.000
    H148     H        0.88370    0.26440    0.53740    1.000
    C493     C        0.91858    0.24001    0.58850    1.000
    H149     H        0.90960    0.21930    0.57940    1.000
    C494     C        0.90100    0.32670    0.54870    1.000
    C495     C        0.99126    0.13163    0.62700    1.000
    C496     C        0.98458    0.10110    0.64048    1.000
    H150     H        0.97830    0.09870    0.66660    1.000
    C497     C        0.98717    0.07416    0.61530    1.000
    H151     H        0.98270    0.05350    0.62440    1.000
    C498     C        0.99644    0.07775    0.57660    1.000
    C499     C        0.00312    0.10828    0.56311    1.000
    H152     H        0.00940    0.11070    0.53690    1.000
    C500     C        0.00053    0.13522    0.58830    1.000
    H153     H        0.00500    0.15590    0.57920    1.000
    C501     C        0.34950    0.07730    0.95190    1.000
    C502     C        0.26305    0.91081    0.84700    1.000
    C503     C        0.28000    0.93772    0.87043    1.000
    H154     H        0.28800    0.93780    0.90240    1.000
    C504     C        0.28506    0.96451    0.84660    1.000
    C505     C        0.27318    0.96438    0.79930    1.000
    C506     C        0.25623    0.93747    0.77586    1.000
    C507     C        0.25116    0.91068    0.79970    1.000
    C508     C        0.25100    0.79900    0.95220    1.000
    C509     C        0.25923    0.88102    0.87342    1.000
    C510     C        0.24994    0.88471    0.91210    1.000
    H155     H        0.24570    0.90540    0.92130    1.000
    C511     C        0.24689    0.85779    0.93703    1.000
    H156     H        0.24060    0.86030    0.96320    1.000
    C512     C        0.25312    0.82718    0.92330    1.000
    C513     C        0.26241    0.82350    0.88470    1.000
    H157     H        0.26660    0.80280    0.87540    1.000
    C514     C        0.26546    0.85042    0.85972    1.000
    H158     H        0.27170    0.84790    0.83360    1.000
    C515     C        0.33900    0.88880    0.54870    1.000
    C516     C        0.30234    0.99373    0.87350    1.000
    C517     C        0.33094    0.99006    0.91210    1.000
    H159     H        0.33990    0.96940    0.92130    1.000
    C518     C        0.34637    0.01698    0.93714    1.000
    H160     H        0.36570    0.01450    0.96330    1.000
    C519     C        0.33319    0.04757    0.92360    1.000
    C520     C        0.30458    0.05123    0.88490    1.000
    H161     H        0.29570    0.07190    0.87570    1.000
    C521     C        0.28915    0.02431    0.85991    1.000
    H162     H        0.26980    0.02680    0.83380    1.000
    C522     C        0.58860    0.86200    0.04910    1.000
    C523     C        0.24355    0.93710    0.72420    1.000
    C524     C        0.26436    0.92590    0.70048    1.000
    C525     C        0.25266    0.92629    0.65320    1.000
    C526     C        0.22015    0.93787    0.62964    1.000
    H163     H        0.21220    0.93810    0.59770    1.000
    C527     C        0.19935    0.94907    0.65336    1.000
    C528     C        0.21105    0.94869    0.70064    1.000
    C529     C        0.06030    0.98690    0.54820    1.000
    C530     C        0.16280    0.95915    0.62715    1.000
    C531     C        0.15704    0.97811    0.58850    1.000
    H164     H        0.17550    0.98470    0.57960    1.000
    C532     C        0.12397    0.98726    0.56317    1.000
    H165     H        0.12010    0.00010    0.53710    1.000
    C533     C        0.09666    0.97745    0.57643    1.000
    C534     C        0.10242    0.95849    0.61500    1.000
    H166     H        0.08400    0.95190    0.62400    1.000
    C535     C        0.13549    0.94934    0.64040    1.000
    H167     H        0.13940    0.93650    0.66650    1.000
    C536     C        0.31090    0.76330    0.04830    1.000
    C537     C        0.41279    0.79059    0.12640    1.000
    C538     C        0.40672    0.77162    0.08770    1.000
    H168     H        0.42500    0.76490    0.07850    1.000
    C539     C        0.37355    0.76251    0.06275    1.000
    H169     H        0.36940    0.74970    0.03660    1.000
    C540     C        0.34646    0.77238    0.07640    1.000
    C541     C        0.35253    0.79135    0.11510    1.000
    H170     H        0.33420    0.79800    0.12430    1.000
    C542     C        0.38569    0.80046    0.14006    1.000
    H171     H        0.38980    0.81330    0.16620    1.000
    O149     O        0.33480    0.10334    0.94000    1.000
    C543     C        0.49358    0.81223    0.22426    1.000
    C544     C        0.51403    0.82450    0.20070    1.000
    C545     C        0.50224    0.82466    0.15340    1.000
    C546     C        0.47000    0.81256    0.12969    1.000
    H172     H        0.46200    0.81270    0.09770    1.000
    C547     C        0.44955    0.80029    0.15320    1.000
    C548     C        0.46134    0.80013    0.20050    1.000
    O150     O        0.37645    0.07235    0.98500    1.000
    C549     C        0.27550    0.91576    0.62699    1.000
    C550     C        0.26213    0.89690    0.58830    1.000
    H173     H        0.23920    0.89020    0.57910    1.000
    C551     C        0.28267    0.88789    0.56300    1.000
    H174     H        0.27360    0.87510    0.53680    1.000
    C552     C        0.31658    0.89774    0.57649    1.000
    C553     C        0.32996    0.91660    0.61520    1.000
    H175     H        0.35290    0.92330    0.62440    1.000
    C554     C        0.30941    0.92561    0.64048    1.000
    H176     H        0.31850    0.93840    0.66670    1.000
    O151     O        0.91566    0.35348    0.56000    1.000
    C555     C        0.52566    0.83429    0.12698    1.000
    C556     C        0.55954    0.82434    0.14026    1.000
    H177     H        0.56860    0.81140    0.16630    1.000
    C557     C        0.58005    0.83346    0.11500    1.000
    H178     H        0.60300    0.82670    0.12400    1.000
    C558     C        0.56669    0.85254    0.07649    1.000
    C559     C        0.53281    0.86249    0.06321    1.000
    H179     H        0.52380    0.87540    0.03720    1.000
    C560     C        0.51230    0.85337    0.08840    1.000
    H180     H        0.48940    0.86010    0.07950    1.000
    O152     O        0.87345    0.32238    0.51600    1.000
    O153     O        0.36918    0.90023    0.56060    1.000
    O154     O        0.32611    0.86956    0.51540    1.000
    O155     O        0.57639    0.88054    0.01600    1.000
    O156     O        0.61795    0.84997    0.05990    1.000
    O157     O        0.30666    0.74441    0.01570    1.000
    O158     O        0.28660    0.77540    0.06030    1.000
    O159     O        0.25987    0.77182    0.93960    1.000
    O160     O        0.24052    0.80253    0.98430    1.000
    O161     O        0.05645    0.00547    0.51500    1.000
    O162     O        0.03606    0.97489    0.56060    1.000
    O163     O        0.00964    0.05274    0.51570    1.000
    O164     O        0.98986    0.02166    0.56069    1.000
    O165     O        0.19090    0.96190    0.72380    1.000
    O166     O        0.23260    0.88440    0.77480    1.000
    O167     O        0.29650    0.91430    0.72470    1.000
    O168     O        0.28060    0.99040    0.77580    1.000
    O169     O        0.01710    0.13400    0.72380    1.000
    O170     O        0.97340    0.24170    0.72520    1.000
    O171     O        0.44000    0.78940    0.22430    1.000
    O172     O        0.95310    0.66440    0.77590    1.000
    O173     O        0.92400    0.58470    0.75800    1.000
    O174     O        0.96320    0.51720    0.76860    1.000
    O175     O        0.44070    0.71060    0.29490    1.000
    O176     O        0.45100    0.62640    0.24470    1.000
    O177     O        0.90680    0.26670    0.74410    1.000
    O178     O        0.06160    0.08480    0.76100    1.000
    O179     O        0.15160    0.99140    0.76410    1.000
    O180     O        0.12470    0.89690    0.74840    1.000
    O181     O        0.28540    0.81600    0.75530    1.000
    O182     O        0.34970    0.88180    0.71810    1.000
    O183     O        0.36530    0.97900    0.73830    1.000
    O184     O        0.30460    0.05060    0.75940    1.000
    O185     O        0.21640    0.06440    0.75690    1.000
    C561     C        0.19110    0.99510    0.72080    1.000
    C562     C        0.19870    0.88300    0.77250    1.000
    C563     C        0.29750    0.88090    0.72620    1.000
    C564     C        0.31340    0.99030    0.77200    1.000
    C565     C        0.05120    0.13810    0.72530    1.000
    C566     C        0.93960    0.24240    0.72460    1.000
    C567     C        0.44070    0.75600    0.23520    1.000
    C568     C        0.95140    0.63090    0.77960    1.000
    C569     C        0.91980    0.62060    0.74910    1.000
    C570     C        0.95620    0.57270    0.75180    1.000
    C571     C        0.96660    0.54960    0.79140    1.000
    C572     C        0.00070    0.52230    0.77420    1.000
    C573     C        0.44460    0.74470    0.28030    1.000
    C574     C        0.44400    0.68280    0.26640    1.000
    C575     C        0.46580    0.65300    0.27970    1.000
    C576     C        0.48270    0.60650    0.25280    1.000
    C577     C        0.90510    0.23520    0.71870    1.000
    C578     C        0.06830    0.10840    0.73300    1.000
    C579     C        0.17640    0.01090    0.74940    1.000
    C580     C        0.12770    0.96060    0.74810    1.000
    C581     C        0.10790    0.92980    0.73550    1.000
    C582     C        0.14280    0.86770    0.74030    1.000
    C583     C        0.17920    0.85530    0.75720    1.000
    C584     C        0.32340    0.82910    0.75810    1.000
    C585     C        0.32990    0.86710    0.74350    1.000
    C586     C        0.37330    0.91270    0.72650    1.000
    C587     C        0.35710    0.94640    0.71610    1.000
    C588     C        0.34680    0.00900    0.73800    1.000
    C589     C        0.32200    0.02090    0.75920    1.000
    C590     C        0.27340    0.07140    0.74930    1.000
    C591     C        0.24430    0.07150    0.74210    1.000
    C592     C        0.19600    0.04040    0.77060    1.000
    C593     C        0.24130    0.85650    0.75060    1.000
    C594     C        0.27470    0.84390    0.76550    1.000
    C595     C        0.32370    0.93920    0.74100    1.000
    C596     C        0.33010    0.96990    0.72470    1.000
    C597     C        0.23410    0.03410    0.76000    1.000
    C598     C        0.26240    0.01920    0.75010    1.000
    C599     C        0.16710    0.94190    0.73930    1.000
    C600     C        0.14680    0.91280    0.72720    1.000
    Cu21     Cu       0.51164    0.51815    0.47371    1.000
    Cu22     Cu       0.76153    0.23181    0.97369    1.000
    Cu23     Cu       0.85018    0.64318    0.97363    1.000
    Cu24     Cu       0.89972    0.60683    0.02624    1.000
    C601     C        0.49323    0.68749    0.72441    1.000
    C602     C        0.49941    0.66102    0.70090    1.000
    C603     C        0.48773    0.66094    0.65362    1.000
    C604     C        0.46986    0.68734    0.62984    1.000
    H181     H        0.46200    0.68730    0.59790    1.000
    C605     C        0.46368    0.71382    0.65334    1.000
    C606     C        0.47537    0.71390    0.70063    1.000
    C607     C        0.49900    0.54860    0.54770    1.000
    C608     C        0.44728    0.74374    0.62700    1.000
    C609     C        0.46049    0.77434    0.64038    1.000
    H182     H        0.47990    0.77690    0.66640    1.000
    C610     C        0.44501    0.80121    0.61530    1.000
    H183     H        0.45390    0.82190    0.62430    1.000
    C611     C        0.41631    0.79749    0.57680    1.000
    C612     C        0.40309    0.76689    0.56341    1.000
    H184     H        0.38370    0.76440    0.53740    1.000
    C613     C        0.41858    0.74001    0.58850    1.000
    H185     H        0.40960    0.71930    0.57940    1.000
    C614     C        0.40100    0.82670    0.54870    1.000
    C615     C        0.49126    0.63163    0.62700    1.000
    C616     C        0.48458    0.60110    0.64048    1.000
    H186     H        0.47830    0.59870    0.66660    1.000
    C617     C        0.48717    0.57416    0.61530    1.000
    H187     H        0.48270    0.55350    0.62440    1.000
    C618     C        0.49644    0.57775    0.57660    1.000
    C619     C        0.50312    0.60828    0.56311    1.000
    H188     H        0.50940    0.61070    0.53690    1.000
    C620     C        0.50053    0.63522    0.58830    1.000
    H189     H        0.50500    0.65590    0.57920    1.000
    C621     C        0.84950    0.57730    0.95190    1.000
    C622     C        0.76305    0.41081    0.84700    1.000
    C623     C        0.78000    0.43772    0.87043    1.000
    H190     H        0.78800    0.43780    0.90240    1.000
    C624     C        0.78506    0.46451    0.84660    1.000
    C625     C        0.77318    0.46438    0.79930    1.000
    C626     C        0.75623    0.43747    0.77586    1.000
    C627     C        0.75116    0.41068    0.79970    1.000
    C628     C        0.75100    0.29900    0.95220    1.000
    C629     C        0.75923    0.38102    0.87342    1.000
    C630     C        0.74994    0.38471    0.91210    1.000
    H191     H        0.74570    0.40540    0.92130    1.000
    C631     C        0.74689    0.35779    0.93703    1.000
    H192     H        0.74060    0.36030    0.96320    1.000
    C632     C        0.75312    0.32718    0.92330    1.000
    C633     C        0.76241    0.32350    0.88470    1.000
    H193     H        0.76660    0.30280    0.87540    1.000
    C634     C        0.76546    0.35042    0.85972    1.000
    H194     H        0.77170    0.34790    0.83360    1.000
    C635     C        0.83900    0.38880    0.54870    1.000
    C636     C        0.80234    0.49373    0.87350    1.000
    C637     C        0.83094    0.49006    0.91210    1.000
    H195     H        0.83990    0.46940    0.92130    1.000
    C638     C        0.84637    0.51698    0.93714    1.000
    H196     H        0.86570    0.51450    0.96330    1.000
    C639     C        0.83319    0.54757    0.92360    1.000
    C640     C        0.80458    0.55123    0.88490    1.000
    H197     H        0.79570    0.57190    0.87570    1.000
    C641     C        0.78915    0.52431    0.85991    1.000
    H198     H        0.76980    0.52680    0.83380    1.000
    C642     C        0.08860    0.36200    0.04910    1.000
    C643     C        0.74355    0.43710    0.72420    1.000
    C644     C        0.76436    0.42590    0.70048    1.000
    C645     C        0.75266    0.42629    0.65320    1.000
    C646     C        0.72015    0.43787    0.62964    1.000
    H199     H        0.71220    0.43810    0.59770    1.000
    C647     C        0.69935    0.44907    0.65336    1.000
    C648     C        0.71105    0.44869    0.70064    1.000
    C649     C        0.56030    0.48690    0.54820    1.000
    C650     C        0.66280    0.45915    0.62715    1.000
    C651     C        0.65704    0.47811    0.58850    1.000
    H200     H        0.67550    0.48470    0.57960    1.000
    C652     C        0.62397    0.48726    0.56317    1.000
    H201     H        0.62010    0.50010    0.53710    1.000
    C653     C        0.59666    0.47745    0.57643    1.000
    C654     C        0.60242    0.45849    0.61500    1.000
    H202     H        0.58400    0.45190    0.62400    1.000
    C655     C        0.63549    0.44934    0.64040    1.000
    H203     H        0.63940    0.43650    0.66650    1.000
    C656     C        0.81090    0.26330    0.04830    1.000
    C657     C        0.91279    0.29059    0.12640    1.000
    C658     C        0.90672    0.27162    0.08770    1.000
    H204     H        0.92500    0.26490    0.07850    1.000
    C659     C        0.87355    0.26251    0.06275    1.000
    H205     H        0.86940    0.24970    0.03660    1.000
    C660     C        0.84646    0.27238    0.07640    1.000
    C661     C        0.85253    0.29135    0.11510    1.000
    H206     H        0.83420    0.29800    0.12430    1.000
    C662     C        0.88569    0.30046    0.14006    1.000
    H207     H        0.88980    0.31330    0.16620    1.000
    O186     O        0.83480    0.60334    0.94000    1.000
    C663     C        0.99358    0.31223    0.22426    1.000
    C664     C        0.01403    0.32450    0.20070    1.000
    C665     C        0.00224    0.32466    0.15340    1.000
    C666     C        0.97000    0.31256    0.12969    1.000
    H208     H        0.96200    0.31270    0.09770    1.000
    C667     C        0.94955    0.30029    0.15320    1.000
    C668     C        0.96134    0.30013    0.20050    1.000
    O187     O        0.87645    0.57235    0.98500    1.000
    C669     C        0.77550    0.41576    0.62699    1.000
    C670     C        0.76213    0.39690    0.58830    1.000
    H209     H        0.73920    0.39020    0.57910    1.000
    C671     C        0.78267    0.38789    0.56300    1.000
    H210     H        0.77360    0.37510    0.53680    1.000
    C672     C        0.81658    0.39774    0.57649    1.000
    C673     C        0.82996    0.41660    0.61520    1.000
    H211     H        0.85290    0.42330    0.62440    1.000
    C674     C        0.80941    0.42561    0.64048    1.000
    H212     H        0.81850    0.43840    0.66670    1.000
    O188     O        0.41566    0.85348    0.56000    1.000
    C675     C        0.02566    0.33429    0.12698    1.000
    C676     C        0.05954    0.32434    0.14026    1.000
    H213     H        0.06860    0.31140    0.16630    1.000
    C677     C        0.08005    0.33346    0.11500    1.000
    H214     H        0.10300    0.32670    0.12400    1.000
    C678     C        0.06669    0.35254    0.07649    1.000
    C679     C        0.03281    0.36249    0.06321    1.000
    H215     H        0.02380    0.37540    0.03720    1.000
    C680     C        0.01230    0.35337    0.08840    1.000
    H216     H        0.98940    0.36010    0.07950    1.000
    O189     O        0.37345    0.82238    0.51600    1.000
    O190     O        0.86918    0.40023    0.56060    1.000
    O191     O        0.82611    0.36956    0.51540    1.000
    O192     O        0.07639    0.38054    0.01600    1.000
    O193     O        0.11795    0.34997    0.05990    1.000
    O194     O        0.80666    0.24441    0.01570    1.000
    O195     O        0.78660    0.27540    0.06030    1.000
    O196     O        0.75987    0.27182    0.93960    1.000
    O197     O        0.74052    0.30253    0.98430    1.000
    O198     O        0.55645    0.50547    0.51500    1.000
    O199     O        0.53606    0.47489    0.56060    1.000
    O200     O        0.50964    0.55274    0.51570    1.000
    O201     O        0.48986    0.52166    0.56069    1.000
    O202     O        0.69090    0.46190    0.72380    1.000
    O203     O        0.73260    0.38440    0.77480    1.000
    O204     O        0.79650    0.41430    0.72470    1.000
    O205     O        0.78060    0.49040    0.77580    1.000
    O206     O        0.51710    0.63400    0.72380    1.000
    O207     O        0.47340    0.74170    0.72520    1.000
    O208     O        0.94000    0.28940    0.22430    1.000
    O209     O        0.45310    0.16440    0.77590    1.000
    O210     O        0.42400    0.08470    0.75800    1.000
    O211     O        0.46320    0.01720    0.76860    1.000
    O212     O        0.94070    0.21060    0.29490    1.000
    O213     O        0.95100    0.12640    0.24470    1.000
    O214     O        0.40680    0.76670    0.74410    1.000
    O215     O        0.56160    0.58480    0.76100    1.000
    O216     O        0.65160    0.49140    0.76410    1.000
    O217     O        0.62470    0.39690    0.74840    1.000
    O218     O        0.78540    0.31600    0.75530    1.000
    O219     O        0.84970    0.38180    0.71810    1.000
    O220     O        0.86530    0.47900    0.73830    1.000
    O221     O        0.80460    0.55060    0.75940    1.000
    O222     O        0.71640    0.56440    0.75690    1.000
    C681     C        0.69110    0.49510    0.72080    1.000
    C682     C        0.69870    0.38300    0.77250    1.000
    C683     C        0.79750    0.38090    0.72620    1.000
    C684     C        0.81340    0.49030    0.77200    1.000
    C685     C        0.55120    0.63810    0.72530    1.000
    C686     C        0.43960    0.74240    0.72460    1.000
    C687     C        0.94070    0.25600    0.23520    1.000
    C688     C        0.45140    0.13090    0.77960    1.000
    C689     C        0.41980    0.12060    0.74910    1.000
    C690     C        0.45620    0.07270    0.75180    1.000
    C691     C        0.46660    0.04960    0.79140    1.000
    C692     C        0.50070    0.02230    0.77420    1.000
    C693     C        0.94460    0.24470    0.28030    1.000
    C694     C        0.94400    0.18280    0.26640    1.000
    C695     C        0.96580    0.15300    0.27970    1.000
    C696     C        0.98270    0.10650    0.25280    1.000
    C697     C        0.40510    0.73520    0.71870    1.000
    C698     C        0.56830    0.60840    0.73300    1.000
    C699     C        0.67640    0.51090    0.74940    1.000
    C700     C        0.62770    0.46060    0.74810    1.000
    C701     C        0.60790    0.42980    0.73550    1.000
    C702     C        0.64280    0.36770    0.74030    1.000
    C703     C        0.67920    0.35530    0.75720    1.000
    C704     C        0.82340    0.32910    0.75810    1.000
    C705     C        0.82990    0.36710    0.74350    1.000
    C706     C        0.87330    0.41270    0.72650    1.000
    C707     C        0.85710    0.44640    0.71610    1.000
    C708     C        0.84680    0.50900    0.73800    1.000
    C709     C        0.82200    0.52090    0.75920    1.000
    C710     C        0.77340    0.57140    0.74930    1.000
    C711     C        0.74430    0.57150    0.74210    1.000
    C712     C        0.69600    0.54040    0.77060    1.000
    C713     C        0.74130    0.35650    0.75060    1.000
    C714     C        0.77470    0.34390    0.76550    1.000
    C715     C        0.82370    0.43920    0.74100    1.000
    C716     C        0.83010    0.46990    0.72470    1.000
    C717     C        0.73410    0.53410    0.76000    1.000
    C718     C        0.76240    0.51920    0.75010    1.000
    C719     C        0.66710    0.44190    0.73930    1.000
    C720     C        0.64680    0.41280    0.72720    1.000
    Cu25     Cu       0.98836    0.01815    0.02629    1.000
    Cu26     Cu       0.73847    0.73181    0.52631    1.000
    Cu27     Cu       0.64982    0.14318    0.52637    1.000
    Cu28     Cu       0.60028    0.10683    0.47376    1.000
    C721     C        0.00677    0.18749    0.77559    1.000
    C722     C        0.00059    0.16102    0.79910    1.000
    C723     C        0.01227    0.16094    0.84638    1.000
    C724     C        0.03014    0.18734    0.87016    1.000
    H217     H        0.03800    0.18730    0.90210    1.000
    C725     C        0.03632    0.21382    0.84666    1.000
    C726     C        0.02463    0.21390    0.79937    1.000
    C727     C        0.00100    0.04860    0.95230    1.000
    C728     C        0.05272    0.24374    0.87300    1.000
    C729     C        0.03951    0.27434    0.85962    1.000
    H218     H        0.02010    0.27690    0.83360    1.000
    C730     C        0.05499    0.30121    0.88470    1.000
    H219     H        0.04610    0.32190    0.87570    1.000
    C731     C        0.08369    0.29749    0.92320    1.000
    C732     C        0.09691    0.26689    0.93659    1.000
    H220     H        0.11630    0.26440    0.96260    1.000
    C733     C        0.08142    0.24001    0.91150    1.000
    H221     H        0.09040    0.21930    0.92060    1.000
    C734     C        0.09900    0.32670    0.95130    1.000
    C735     C        0.00874    0.13163    0.87300    1.000
    C736     C        0.01542    0.10110    0.85952    1.000
    H222     H        0.02170    0.09870    0.83340    1.000
    C737     C        0.01283    0.07416    0.88470    1.000
    H223     H        0.01730    0.05350    0.87560    1.000
    C738     C        0.00356    0.07775    0.92340    1.000
    C739     C        0.99688    0.10828    0.93689    1.000
    H224     H        0.99060    0.11070    0.96310    1.000
    C740     C        0.99947    0.13522    0.91170    1.000
    H225     H        0.99500    0.15590    0.92080    1.000
    C741     C        0.65050    0.07730    0.54810    1.000
    C742     C        0.73695    0.91081    0.65300    1.000
    C743     C        0.72000    0.93772    0.62957    1.000
    H226     H        0.71200    0.93780    0.59760    1.000
    C744     C        0.71494    0.96451    0.65340    1.000
    C745     C        0.72682    0.96438    0.70070    1.000
    C746     C        0.74377    0.93747    0.72414    1.000
    C747     C        0.74884    0.91068    0.70030    1.000
    C748     C        0.74900    0.79900    0.54780    1.000
    C749     C        0.74077    0.88102    0.62658    1.000
    C750     C        0.75006    0.88471    0.58790    1.000
    H227     H        0.75430    0.90540    0.57870    1.000
    C751     C        0.75311    0.85779    0.56297    1.000
    H228     H        0.75940    0.86030    0.53680    1.000
    C752     C        0.74688    0.82718    0.57670    1.000
    C753     C        0.73759    0.82350    0.61530    1.000
    H229     H        0.73340    0.80280    0.62460    1.000
    C754     C        0.73454    0.85042    0.64028    1.000
    H230     H        0.72830    0.84790    0.66640    1.000
    C755     C        0.66100    0.88880    0.95130    1.000
    C756     C        0.69766    0.99373    0.62650    1.000
    C757     C        0.66906    0.99006    0.58790    1.000
    H231     H        0.66010    0.96940    0.57870    1.000
    C758     C        0.65363    0.01698    0.56286    1.000
    H232     H        0.63430    0.01450    0.53670    1.000
    C759     C        0.66681    0.04757    0.57640    1.000
    C760     C        0.69542    0.05123    0.61510    1.000
    H233     H        0.70430    0.07190    0.62430    1.000
    C761     C        0.71085    0.02431    0.64009    1.000
    H234     H        0.73020    0.02680    0.66620    1.000
    C762     C        0.41140    0.86200    0.45090    1.000
    C763     C        0.75645    0.93710    0.77580    1.000
    C764     C        0.73564    0.92590    0.79952    1.000
    C765     C        0.74734    0.92629    0.84680    1.000
    C766     C        0.77985    0.93787    0.87036    1.000
    H235     H        0.78780    0.93810    0.90230    1.000
    C767     C        0.80065    0.94907    0.84664    1.000
    C768     C        0.78895    0.94869    0.79936    1.000
    C769     C        0.93970    0.98690    0.95180    1.000
    C770     C        0.83720    0.95915    0.87285    1.000
    C771     C        0.84296    0.97811    0.91150    1.000
    H236     H        0.82450    0.98470    0.92040    1.000
    C772     C        0.87603    0.98726    0.93683    1.000
    H237     H        0.87990    0.00010    0.96290    1.000
    C773     C        0.90334    0.97745    0.92357    1.000
    C774     C        0.89758    0.95849    0.88500    1.000
    H238     H        0.91600    0.95190    0.87600    1.000
    C775     C        0.86451    0.94934    0.85960    1.000
    H239     H        0.86060    0.93650    0.83350    1.000
    C776     C        0.68910    0.76330    0.45170    1.000
    C777     C        0.58721    0.79059    0.37360    1.000
    C778     C        0.59328    0.77162    0.41230    1.000
    H240     H        0.57500    0.76490    0.42150    1.000
    C779     C        0.62645    0.76251    0.43725    1.000
    H241     H        0.63060    0.74970    0.46340    1.000
    C780     C        0.65354    0.77238    0.42360    1.000
    C781     C        0.64747    0.79135    0.38490    1.000
    H242     H        0.66580    0.79800    0.37570    1.000
    C782     C        0.61431    0.80046    0.35994    1.000
    H243     H        0.61020    0.81330    0.33380    1.000
    O223     O        0.66520    0.10334    0.56000    1.000
    C783     C        0.50642    0.81223    0.27574    1.000
    C784     C        0.48597    0.82450    0.29930    1.000
    C785     C        0.49776    0.82466    0.34660    1.000
    C786     C        0.53000    0.81256    0.37031    1.000
    H244     H        0.53800    0.81270    0.40230    1.000
    C787     C        0.55045    0.80029    0.34680    1.000
    C788     C        0.53866    0.80013    0.29950    1.000
    O224     O        0.62355    0.07235    0.51500    1.000
    C789     C        0.72450    0.91576    0.87301    1.000
    C790     C        0.73787    0.89690    0.91170    1.000
    H245     H        0.76080    0.89020    0.92090    1.000
    C791     C        0.71733    0.88789    0.93700    1.000
    H246     H        0.72640    0.87510    0.96320    1.000
    C792     C        0.68342    0.89774    0.92351    1.000
    C793     C        0.67004    0.91660    0.88480    1.000
    H247     H        0.64710    0.92330    0.87560    1.000
    C794     C        0.69059    0.92561    0.85952    1.000
    H248     H        0.68150    0.93840    0.83330    1.000
    O225     O        0.08434    0.35348    0.94000    1.000
    C795     C        0.47434    0.83429    0.37302    1.000
    C796     C        0.44046    0.82434    0.35974    1.000
    H249     H        0.43140    0.81140    0.33370    1.000
    C797     C        0.41995    0.83346    0.38500    1.000
    H250     H        0.39700    0.82670    0.37600    1.000
    C798     C        0.43331    0.85254    0.42351    1.000
    C799     C        0.46719    0.86249    0.43679    1.000
    H251     H        0.47620    0.87540    0.46280    1.000
    C800     C        0.48770    0.85337    0.41160    1.000
    H252     H        0.51060    0.86010    0.42050    1.000
    O226     O        0.12655    0.32238    0.98400    1.000
    O227     O        0.63082    0.90023    0.93940    1.000
    O228     O        0.67389    0.86956    0.98460    1.000
    O229     O        0.42361    0.88054    0.48400    1.000
    O230     O        0.38205    0.84997    0.44010    1.000
    O231     O        0.69334    0.74441    0.48430    1.000
    O232     O        0.71340    0.77540    0.43970    1.000
    O233     O        0.74013    0.77182    0.56040    1.000
    O234     O        0.75948    0.80253    0.51570    1.000
    O235     O        0.94355    0.00547    0.98500    1.000
    O236     O        0.96394    0.97489    0.93940    1.000
    O237     O        0.99036    0.05274    0.98430    1.000
    O238     O        0.01014    0.02166    0.93931    1.000
    O239     O        0.80910    0.96190    0.77620    1.000
    O240     O        0.76740    0.88440    0.72520    1.000
    O241     O        0.70350    0.91430    0.77530    1.000
    O242     O        0.71940    0.99040    0.72420    1.000
    O243     O        0.98290    0.13400    0.77620    1.000
    O244     O        0.02660    0.24170    0.77480    1.000
    O245     O        0.56000    0.78940    0.27570    1.000
    O246     O        0.04690    0.66440    0.72410    1.000
    O247     O        0.07600    0.58470    0.74200    1.000
    O248     O        0.03680    0.51720    0.73140    1.000
    O249     O        0.55930    0.71060    0.20510    1.000
    O250     O        0.54900    0.62640    0.25530    1.000
    O251     O        0.09320    0.26670    0.75590    1.000
    O252     O        0.93840    0.08480    0.73900    1.000
    O253     O        0.84840    0.99140    0.73590    1.000
    O254     O        0.87530    0.89690    0.75160    1.000
    O255     O        0.71460    0.81600    0.74470    1.000
    O256     O        0.65030    0.88180    0.78190    1.000
    O257     O        0.63470    0.97900    0.76170    1.000
    O258     O        0.69540    0.05060    0.74060    1.000
    O259     O        0.78360    0.06440    0.74310    1.000
    C801     C        0.80890    0.99510    0.77920    1.000
    C802     C        0.80130    0.88300    0.72750    1.000
    C803     C        0.70250    0.88090    0.77380    1.000
    C804     C        0.68660    0.99030    0.72800    1.000
    C805     C        0.94880    0.13810    0.77470    1.000
    C806     C        0.06040    0.24240    0.77540    1.000
    C807     C        0.55930    0.75600    0.26480    1.000
    C808     C        0.04860    0.63090    0.72040    1.000
    C809     C        0.08020    0.62060    0.75090    1.000
    C810     C        0.04380    0.57270    0.74820    1.000
    C811     C        0.03340    0.54960    0.70860    1.000
    C812     C        0.99930    0.52230    0.72580    1.000
    C813     C        0.55540    0.74470    0.21970    1.000
    C814     C        0.55600    0.68280    0.23360    1.000
    C815     C        0.53420    0.65300    0.22030    1.000
    C816     C        0.51730    0.60650    0.24720    1.000
    C817     C        0.09490    0.23520    0.78130    1.000
    C818     C        0.93170    0.10840    0.76700    1.000
    C819     C        0.82360    0.01090    0.75060    1.000
    C820     C        0.87230    0.96060    0.75190    1.000
    C821     C        0.89210    0.92980    0.76450    1.000
    C822     C        0.85720    0.86770    0.75970    1.000
    C823     C        0.82080    0.85530    0.74280    1.000
    C824     C        0.67660    0.82910    0.74190    1.000
    C825     C        0.67010    0.86710    0.75650    1.000
    C826     C        0.62670    0.91270    0.77350    1.000
    C827     C        0.64290    0.94640    0.78390    1.000
    C828     C        0.65320    0.00900    0.76200    1.000
    C829     C        0.67800    0.02090    0.74080    1.000
    C830     C        0.72660    0.07140    0.75070    1.000
    C831     C        0.75570    0.07150    0.75790    1.000
    C832     C        0.80400    0.04040    0.72940    1.000
    C833     C        0.75870    0.85650    0.74940    1.000
    C834     C        0.72530    0.84390    0.73450    1.000
    C835     C        0.67630    0.93920    0.75900    1.000
    C836     C        0.66990    0.96990    0.77530    1.000
    C837     C        0.76590    0.03410    0.74000    1.000
    C838     C        0.73760    0.01920    0.74990    1.000
    C839     C        0.83290    0.94190    0.76070    1.000
    C840     C        0.85320    0.91280    0.77280    1.000
    Cu29     Cu       0.48836    0.51815    0.02629    1.000
    Cu30     Cu       0.23847    0.23181    0.52631    1.000
    Cu31     Cu       0.14982    0.64318    0.52637    1.000
    Cu32     Cu       0.10028    0.60683    0.47376    1.000
    C841     C        0.50677    0.68749    0.77559    1.000
    C842     C        0.50059    0.66102    0.79910    1.000
    C843     C        0.51227    0.66094    0.84638    1.000
    C844     C        0.53014    0.68734    0.87016    1.000
    H253     H        0.53800    0.68730    0.90210    1.000
    C845     C        0.53632    0.71382    0.84666    1.000
    C846     C        0.52463    0.71390    0.79937    1.000
    C847     C        0.50100    0.54860    0.95230    1.000
    C848     C        0.55272    0.74374    0.87300    1.000
    C849     C        0.53951    0.77434    0.85962    1.000
    H254     H        0.52010    0.77690    0.83360    1.000
    C850     C        0.55499    0.80121    0.88470    1.000
    H255     H        0.54610    0.82190    0.87570    1.000
    C851     C        0.58369    0.79749    0.92320    1.000
    C852     C        0.59691    0.76689    0.93659    1.000
    H256     H        0.61630    0.76440    0.96260    1.000
    C853     C        0.58142    0.74001    0.91150    1.000
    H257     H        0.59040    0.71930    0.92060    1.000
    C854     C        0.59900    0.82670    0.95130    1.000
    C855     C        0.50874    0.63163    0.87300    1.000
    C856     C        0.51542    0.60110    0.85952    1.000
    H258     H        0.52170    0.59870    0.83340    1.000
    C857     C        0.51283    0.57416    0.88470    1.000
    H259     H        0.51730    0.55350    0.87560    1.000
    C858     C        0.50356    0.57775    0.92340    1.000
    C859     C        0.49688    0.60828    0.93689    1.000
    H260     H        0.49060    0.61070    0.96310    1.000
    C860     C        0.49947    0.63522    0.91170    1.000
    H261     H        0.49500    0.65590    0.92080    1.000
    C861     C        0.15050    0.57730    0.54810    1.000
    C862     C        0.23695    0.41081    0.65300    1.000
    C863     C        0.22000    0.43772    0.62957    1.000
    H262     H        0.21200    0.43780    0.59760    1.000
    C864     C        0.21494    0.46451    0.65340    1.000
    C865     C        0.22682    0.46438    0.70070    1.000
    C866     C        0.24377    0.43747    0.72414    1.000
    C867     C        0.24884    0.41068    0.70030    1.000
    C868     C        0.24900    0.29900    0.54780    1.000
    C869     C        0.24077    0.38102    0.62658    1.000
    C870     C        0.25006    0.38471    0.58790    1.000
    H263     H        0.25430    0.40540    0.57870    1.000
    C871     C        0.25311    0.35779    0.56297    1.000
    H264     H        0.25940    0.36030    0.53680    1.000
    C872     C        0.24688    0.32718    0.57670    1.000
    C873     C        0.23759    0.32350    0.61530    1.000
    H265     H        0.23340    0.30280    0.62460    1.000
    C874     C        0.23454    0.35042    0.64028    1.000
    H266     H        0.22830    0.34790    0.66640    1.000
    C875     C        0.16100    0.38880    0.95130    1.000
    C876     C        0.19766    0.49373    0.62650    1.000
    C877     C        0.16906    0.49006    0.58790    1.000
    H267     H        0.16010    0.46940    0.57870    1.000
    C878     C        0.15363    0.51698    0.56286    1.000
    H268     H        0.13430    0.51450    0.53670    1.000
    C879     C        0.16681    0.54757    0.57640    1.000
    C880     C        0.19542    0.55123    0.61510    1.000
    H269     H        0.20430    0.57190    0.62430    1.000
    C881     C        0.21085    0.52431    0.64009    1.000
    H270     H        0.23020    0.52680    0.66620    1.000
    C882     C        0.91140    0.36200    0.45090    1.000
    C883     C        0.25645    0.43710    0.77580    1.000
    C884     C        0.23564    0.42590    0.79952    1.000
    C885     C        0.24734    0.42629    0.84680    1.000
    C886     C        0.27985    0.43787    0.87036    1.000
    H271     H        0.28780    0.43810    0.90230    1.000
    C887     C        0.30065    0.44907    0.84664    1.000
    C888     C        0.28895    0.44869    0.79936    1.000
    C889     C        0.43970    0.48690    0.95180    1.000
    C890     C        0.33720    0.45915    0.87285    1.000
    C891     C        0.34296    0.47811    0.91150    1.000
    H272     H        0.32450    0.48470    0.92040    1.000
    C892     C        0.37603    0.48726    0.93683    1.000
    H273     H        0.37990    0.50010    0.96290    1.000
    C893     C        0.40334    0.47745    0.92357    1.000
    C894     C        0.39758    0.45849    0.88500    1.000
    H274     H        0.41600    0.45190    0.87600    1.000
    C895     C        0.36451    0.44934    0.85960    1.000
    H275     H        0.36060    0.43650    0.83350    1.000
    C896     C        0.18910    0.26330    0.45170    1.000
    C897     C        0.08721    0.29059    0.37360    1.000
    C898     C        0.09328    0.27162    0.41230    1.000
    H276     H        0.07500    0.26490    0.42150    1.000
    C899     C        0.12645    0.26251    0.43725    1.000
    H277     H        0.13060    0.24970    0.46340    1.000
    C900     C        0.15354    0.27238    0.42360    1.000
    C901     C        0.14747    0.29135    0.38490    1.000
    H278     H        0.16580    0.29800    0.37570    1.000
    C902     C        0.11431    0.30046    0.35994    1.000
    H279     H        0.11020    0.31330    0.33380    1.000
    O260     O        0.16520    0.60334    0.56000    1.000
    C903     C        0.00642    0.31223    0.27574    1.000
    C904     C        0.98597    0.32450    0.29930    1.000
    C905     C        0.99776    0.32466    0.34660    1.000
    C906     C        0.03000    0.31256    0.37031    1.000
    H280     H        0.03800    0.31270    0.40230    1.000
    C907     C        0.05045    0.30029    0.34680    1.000
    C908     C        0.03866    0.30013    0.29950    1.000
    O261     O        0.12355    0.57235    0.51500    1.000
    C909     C        0.22450    0.41576    0.87301    1.000
    C910     C        0.23787    0.39690    0.91170    1.000
    H281     H        0.26080    0.39020    0.92090    1.000
    C911     C        0.21733    0.38789    0.93700    1.000
    H282     H        0.22640    0.37510    0.96320    1.000
    C912     C        0.18342    0.39774    0.92351    1.000
    C913     C        0.17004    0.41660    0.88480    1.000
    H283     H        0.14710    0.42330    0.87560    1.000
    C914     C        0.19059    0.42561    0.85952    1.000
    H284     H        0.18150    0.43840    0.83330    1.000
    O262     O        0.58434    0.85348    0.94000    1.000
    C915     C        0.97434    0.33429    0.37302    1.000
    C916     C        0.94046    0.32434    0.35974    1.000
    H285     H        0.93140    0.31140    0.33370    1.000
    C917     C        0.91995    0.33346    0.38500    1.000
    H286     H        0.89700    0.32670    0.37600    1.000
    C918     C        0.93331    0.35254    0.42351    1.000
    C919     C        0.96719    0.36249    0.43679    1.000
    H287     H        0.97620    0.37540    0.46280    1.000
    C920     C        0.98770    0.35337    0.41160    1.000
    H288     H        0.01060    0.36010    0.42050    1.000
    O263     O        0.62655    0.82238    0.98400    1.000
    O264     O        0.13082    0.40023    0.93940    1.000
    O265     O        0.17389    0.36956    0.98460    1.000
    O266     O        0.92361    0.38054    0.48400    1.000
    O267     O        0.88205    0.34997    0.44010    1.000
    O268     O        0.19334    0.24441    0.48430    1.000
    O269     O        0.21340    0.27540    0.43970    1.000
    O270     O        0.24013    0.27182    0.56040    1.000
    O271     O        0.25948    0.30253    0.51570    1.000
    O272     O        0.44355    0.50547    0.98500    1.000
    O273     O        0.46394    0.47489    0.93940    1.000
    O274     O        0.49036    0.55274    0.98430    1.000
    O275     O        0.51014    0.52166    0.93931    1.000
    O276     O        0.30910    0.46190    0.77620    1.000
    O277     O        0.26740    0.38440    0.72520    1.000
    O278     O        0.20350    0.41430    0.77530    1.000
    O279     O        0.21940    0.49040    0.72420    1.000
    O280     O        0.48290    0.63400    0.77620    1.000
    O281     O        0.52660    0.74170    0.77480    1.000
    O282     O        0.06000    0.28940    0.27570    1.000
    O283     O        0.54690    0.16440    0.72410    1.000
    O284     O        0.57600    0.08470    0.74200    1.000
    O285     O        0.53680    0.01720    0.73140    1.000
    O286     O        0.05930    0.21060    0.20510    1.000
    O287     O        0.04900    0.12640    0.25530    1.000
    O288     O        0.59320    0.76670    0.75590    1.000
    O289     O        0.43840    0.58480    0.73900    1.000
    O290     O        0.34840    0.49140    0.73590    1.000
    O291     O        0.37530    0.39690    0.75160    1.000
    O292     O        0.21460    0.31600    0.74470    1.000
    O293     O        0.15030    0.38180    0.78190    1.000
    O294     O        0.13470    0.47900    0.76170    1.000
    O295     O        0.19540    0.55060    0.74060    1.000
    O296     O        0.28360    0.56440    0.74310    1.000
    C921     C        0.30890    0.49510    0.77920    1.000
    C922     C        0.30130    0.38300    0.72750    1.000
    C923     C        0.20250    0.38090    0.77380    1.000
    C924     C        0.18660    0.49030    0.72800    1.000
    C925     C        0.44880    0.63810    0.77470    1.000
    C926     C        0.56040    0.74240    0.77540    1.000
    C927     C        0.05930    0.25600    0.26480    1.000
    C928     C        0.54860    0.13090    0.72040    1.000
    C929     C        0.58020    0.12060    0.75090    1.000
    C930     C        0.54380    0.07270    0.74820    1.000
    C931     C        0.53340    0.04960    0.70860    1.000
    C932     C        0.49930    0.02230    0.72580    1.000
    C933     C        0.05540    0.24470    0.21970    1.000
    C934     C        0.05600    0.18280    0.23360    1.000
    C935     C        0.03420    0.15300    0.22030    1.000
    C936     C        0.01730    0.10650    0.24720    1.000
    C937     C        0.59490    0.73520    0.78130    1.000
    C938     C        0.43170    0.60840    0.76700    1.000
    C939     C        0.32360    0.51090    0.75060    1.000
    C940     C        0.37230    0.46060    0.75190    1.000
    C941     C        0.39210    0.42980    0.76450    1.000
    C942     C        0.35720    0.36770    0.75970    1.000
    C943     C        0.32080    0.35530    0.74280    1.000
    C944     C        0.17660    0.32910    0.74190    1.000
    C945     C        0.17010    0.36710    0.75650    1.000
    C946     C        0.12670    0.41270    0.77350    1.000
    C947     C        0.14290    0.44640    0.78390    1.000
    C948     C        0.15320    0.50900    0.76200    1.000
    C949     C        0.17800    0.52090    0.74080    1.000
    C950     C        0.22660    0.57140    0.75070    1.000
    C951     C        0.25570    0.57150    0.75790    1.000
    C952     C        0.30400    0.54040    0.72940    1.000
    C953     C        0.25870    0.35650    0.74940    1.000
    C954     C        0.22530    0.34390    0.73450    1.000
    C955     C        0.17630    0.43920    0.75900    1.000
    C956     C        0.16990    0.46990    0.77530    1.000
    C957     C        0.26590    0.53410    0.74000    1.000
    C958     C        0.23760    0.51920    0.74990    1.000
    C959     C        0.33290    0.44190    0.76070    1.000
    C960     C        0.35320    0.41280    0.77280    1.000
