# CIF file generated by openbabel 3.1.0, see https://openbabel.org
data_I
_chemical_name_common 'image0'
_cell_length_a 15.9451
_cell_length_b 28.148
_cell_length_c 23.416
_cell_angle_alpha 90
_cell_angle_beta 107.837
_cell_angle_gamma 90
_space_group_name_H-M_alt 'P 1'
_space_group_name_Hall 'P 1'
loop_
    _symmetry_equiv_pos_as_xyz
    x,y,z
loop_
    _atom_site_label
    _atom_site_type_symbol
    _atom_site_fract_x
    _atom_site_fract_y
    _atom_site_fract_z
    _atom_site_occupancy
    C1       C        0.73990    0.05870    0.66130    1.000
    C2       C        0.73000    0.00633    0.65280    1.000
    C3       C        0.80260    0.97640    0.66290    1.000
    H1       H        0.85910    0.98910    0.67460    1.000
    C4       C        0.64600    0.98673    0.63430    1.000
    H2       H        0.59690    0.00630    0.62750    1.000
    C5       C        0.79110    0.92795    0.65580    1.000
    H3       H        0.83980    0.90790    0.66420    1.000
    C6       C        0.63520    0.93834    0.62590    1.000
    H4       H        0.57900    0.92530    0.61300    1.000
    C7       C        0.70790    0.90959    0.63650    1.000
    C8       C        0.75280    0.82780    0.64000    1.000
    C9       C        0.78290    0.80810    0.59850    1.000
    H5       H        0.76610    0.82040    0.55980    1.000
    C10      C        0.77970    0.81190    0.69690    1.000
    H6       H        0.76150    0.82690    0.72640    1.000
    C11      C        0.83930    0.76930    0.61250    1.000
    H7       H        0.86010    0.75570    0.58330    1.000
    C12      C        0.83520    0.77260    0.71110    1.000
    H8       H        0.85240    0.76110    0.75030    1.000
    C13      C        0.86440    0.75083    0.67000    1.000
    C14      C        0.92360    0.70896    0.68520    1.000
    C15      C        0.41590    0.11689    0.63350    1.000
    C16      C        0.32750    0.10663    0.58980    1.000
    C17      C        0.31930    0.07970    0.53930    1.000
    H9       H        0.36940    0.06730    0.53240    1.000
    C18      C        0.25290    0.12350    0.59950    1.000
    H10      H        0.25780    0.14090    0.63410    1.000
    C19      C        0.23650    0.07090    0.49840    1.000
    H11      H        0.23130    0.05280    0.46430    1.000
    C20      C        0.16930    0.11540    0.55910    1.000
    H12      H        0.11920    0.12760    0.56620    1.000
    C21      C        0.16300    0.08900    0.50890    1.000
    C22      C        0.04830    0.04490    0.43780    1.000
    C23      C        0.07840    0.00080    0.45590    1.000
    H13      H        0.12460    0.99660    0.49110    1.000
    C24      C        0.97930    0.05140    0.38550    1.000
    H14      H        0.96060    0.08190    0.37190    1.000
    C25      C        0.04000    0.96200    0.42150    1.000
    H15      H        0.06200    0.93170    0.43300    1.000
    C26      C        0.93900    0.01220    0.35400    1.000
    H16      H        0.88970    0.01630    0.32070    1.000
    C27      C        0.96920    0.96770    0.37030    1.000
    C28      C        0.93010    0.92520    0.33280    1.000
    C29      C        0.57070    0.07023    0.81090    1.000
    C30      C        0.63260    0.02885    0.82810    1.000
    C31      C        0.64970    0.00090    0.78520    1.000
    H17      H        0.62640    0.00880    0.74480    1.000
    C32      C        0.67000    0.01784    0.88720    1.000
    H18      H        0.65970    0.03710    0.91660    1.000
    C33      C        0.70200    0.96040    0.80190    1.000
    H19      H        0.71230    0.94070    0.77280    1.000
    C34      C        0.73780    0.95023    0.86120    1.000
    C35      C        0.72270    0.97859    0.90350    1.000
    H20      H        0.74820    0.97140    0.94390    1.000
    C36      C        0.77290    0.86698    0.86220    1.000
    C37      C        0.84280    0.83503    0.87600    1.000
    H21      H        0.89970    0.84560    0.89540    1.000
    C38      C        0.68850    0.85125    0.83460    1.000
    H22      H        0.64190    0.87270    0.82490    1.000
    C39      C        0.82780    0.78797    0.86120    1.000
    H23      H        0.87500    0.76690    0.86960    1.000
    C40      C        0.74230    0.77123    0.83340    1.000
    C41      C        0.67310    0.80349    0.82140    1.000
    H24      H        0.61570    0.79290    0.80420    1.000
    C42      C        0.72690    0.72029    0.81680    1.000
    C43      C        0.35300    0.12002    0.90210    1.000
    C44      C        0.41280    0.12745    0.96350    1.000
    C45      C        0.48380    0.15680    0.97580    1.000
    H25      H        0.49960    0.17110    0.94470    1.000
    C46      C        0.39270    0.10430    0.01040    1.000
    H26      H        0.34510    0.08350    0.00190    1.000
    C47      C        0.53280    0.16550    0.03510    1.000
    H27      H        0.58090    0.18600    0.04410    1.000
    C48      C        0.44200    0.11170    0.06850    1.000
    H28      H        0.42940    0.09540    0.09940    1.000
    C49      C        0.50930    0.14310    0.08080    1.000
    C50      C        0.61300    0.18580    0.15980    1.000
    C51      C        0.58500    0.23160    0.15440    1.000
    H29      H        0.52670    0.23890    0.13370    1.000
    C52      C        0.69910    0.17310    0.18930    1.000
    H30      H        0.71680    0.14150    0.19180    1.000
    C53      C        0.64390    0.26730    0.18000    1.000
    H31      H        0.62550    0.29880    0.17720    1.000
    C54      C        0.75800    0.20860    0.21480    1.000
    H32      H        0.81610    0.20100    0.23550    1.000
    C55      C        0.73100    0.25578    0.20990    1.000
    C56      C        0.79680    0.29325    0.23850    1.000
    C57      C        0.09190    0.19401    0.80140    1.000
    C58      C        0.08200    0.24441    0.81930    1.000
    C59      C        0.15330    0.27350    0.83780    1.000
    H33      H        0.20930    0.26110    0.84290    1.000
    C60      C        0.00110    0.26330    0.81440    1.000
    H34      H        0.95170    0.24380    0.80280    1.000
    C61      C        0.14400    0.32130    0.84900    1.000
    H35      H        0.19320    0.34090    0.86120    1.000
    C62      C        0.99100    0.31030    0.82600    1.000
    H36      H        0.93550    0.32240    0.82300    1.000
    C63      C        0.06280    0.33905    0.84200    1.000
    C64      C        0.07820    0.42115    0.81990    1.000
    C65      C        0.09140    0.41240    0.76650    1.000
    H37      H        0.08130    0.38230    0.74960    1.000
    C66      C        0.08460    0.46641    0.84220    1.000
    H38      H        0.07120    0.47290    0.87740    1.000
    C67      C        0.12010    0.44856    0.73730    1.000
    H39      H        0.13160    0.44220    0.70140    1.000
    C68      C        0.11100    0.50184    0.81170    1.000
    H40      H        0.11480    0.53270    0.82650    1.000
    C69      C        0.13210    0.49371    0.76030    1.000
    C70      C        0.16880    0.53211    0.73190    1.000
    C71      C        0.03860    0.05091    0.80110    1.000
    C72      C        0.04240    0.00820    0.83960    1.000
    C73      C        0.10700    0.00450    0.89300    1.000
    H41      H        0.14790    0.02880    0.90590    1.000
    C74      C        0.98480    0.97190    0.82120    1.000
    H42      H        0.93960    0.97460    0.78510    1.000
    C75      C        0.11180    0.96480    0.92820    1.000
    H43      H        0.15430    0.96290    0.96560    1.000
    C76      C        0.99150    0.93110    0.85450    1.000
    H44      H        0.95330    0.90580    0.84040    1.000
    C77      C        0.05490    0.92850    0.90850    1.000
    C78      C        0.09790    0.88490    0.00160    1.000
    C79      C        0.18470    0.87290    0.02560    1.000
    H45      H        0.21990    0.86800    0.00090    1.000
    C80      C        0.04690    0.89360    0.03600    1.000
    H46      H        0.98890    0.90340    0.01870    1.000
    C81      C        0.21980    0.86800    0.08780    1.000
    H47      H        0.27880    0.86000    0.10480    1.000
    C82      C        0.08050    0.88810    0.09830    1.000
    H48      H        0.04440    0.89330    0.12220    1.000
    C83      C        0.16700    0.87500    0.12400    1.000
    C84      C        0.20410    0.86962    0.19110    1.000
    O1       O        0.80970    0.07773    0.65867    1.000
    O2       O        0.67700    0.08052    0.67070    1.000
    O3       O        0.68810    0.86254    0.62290    1.000
    O4       O        0.95730    0.69256    0.64795    1.000
    O5       O        0.94290    0.69131    0.73823    1.000
    O6       O        0.48430    0.10245    0.62384    1.000
    O7       O        0.41870    0.14139    0.67919    1.000
    O8       O        0.07910    0.08623    0.46880    1.000
    O9       O        0.85120    0.92894    0.30010    1.000
    O10      O        0.97580    0.88905    0.33501    1.000
    O11      O        0.55180    0.08808    0.75745    1.000
    O12      O        0.53670    0.08640    0.84795    1.000
    O13      O        0.79590    0.91261    0.88100    1.000
    O14      O        0.79370    0.69475    0.82042    1.000
    O15      O        0.65000    0.70510    0.80200    1.000
    O16      O        0.37110    0.13831    0.85717    1.000
    O17      O        0.28470    0.09636    0.89458    1.000
    O18      O        0.55460    0.14820    0.13970    1.000
    O19      O        0.87570    0.28160    0.26132    1.000
    O20      O        0.77340    0.33648    0.23731    1.000
    O21      O        0.16790    0.17694    0.81549    1.000
    O22      O        0.02410    0.17274    0.77245    1.000
    O23      O        0.05030    0.38690    0.85350    1.000
    O24      O        0.21650    0.52309    0.70024    1.000
    O25      O        0.15350    0.57488    0.74324    1.000
    O26      O        0.10660    0.07658    0.81407    1.000
    O27      O        0.97100    0.05875    0.75851    1.000
    O28      O        0.05860    0.88584    0.93930    1.000
    O29      O        0.28440    0.86290    0.21217    1.000
    O30      O        0.15140    0.87304    0.22044    1.000
    O31      O        0.88300    0.16100    0.60490    1.000
    H49      H        0.88450    0.17210    0.57140    1.000
    H50      H        0.83510    0.14570    0.59850    1.000
    Tb1      Tb       0.60682    0.14252    0.69479    1.000
    Tb2      Tb       0.43987    0.14079    0.78122    1.000
    Tb3      Tb       0.22024    0.10566    0.78991    1.000
    Tb4      Tb       0.91484    0.13078    0.70701    1.000
    C85      C        0.76010    0.55870    0.83870    1.000
    C86      C        0.77000    0.50633    0.84720    1.000
    C87      C        0.69740    0.47640    0.83710    1.000
    H51      H        0.64090    0.48910    0.82540    1.000
    C88      C        0.85400    0.48673    0.86570    1.000
    H52      H        0.90310    0.50630    0.87250    1.000
    C89      C        0.70890    0.42795    0.84420    1.000
    H53      H        0.66020    0.40790    0.83580    1.000
    C90      C        0.86480    0.43834    0.87410    1.000
    H54      H        0.92100    0.42530    0.88700    1.000
    C91      C        0.79210    0.40959    0.86350    1.000
    C92      C        0.74720    0.32780    0.86000    1.000
    C93      C        0.71710    0.30810    0.90150    1.000
    H55      H        0.73390    0.32040    0.94020    1.000
    C94      C        0.72030    0.31190    0.80310    1.000
    H56      H        0.73850    0.32690    0.77360    1.000
    C95      C        0.66070    0.26930    0.88750    1.000
    H57      H        0.63990    0.25570    0.91670    1.000
    C96      C        0.66480    0.27260    0.78890    1.000
    H58      H        0.64760    0.26110    0.74970    1.000
    C97      C        0.63560    0.25083    0.83000    1.000
    C98      C        0.57640    0.20896    0.81480    1.000
    C99      C        0.08410    0.61689    0.86650    1.000
    C100     C        0.17250    0.60663    0.91020    1.000
    C101     C        0.18070    0.57970    0.96070    1.000
    H59      H        0.13060    0.56730    0.96760    1.000
    C102     C        0.24710    0.62350    0.90050    1.000
    H60      H        0.24220    0.64090    0.86590    1.000
    C103     C        0.26350    0.57090    0.00160    1.000
    H61      H        0.26870    0.55280    0.03570    1.000
    C104     C        0.33070    0.61540    0.94090    1.000
    H62      H        0.38080    0.62760    0.93380    1.000
    C105     C        0.33700    0.58900    0.99110    1.000
    C106     C        0.45170    0.54490    0.06220    1.000
    C107     C        0.42160    0.50080    0.04410    1.000
    H63      H        0.37540    0.49660    0.00890    1.000
    C108     C        0.52070    0.55140    0.11450    1.000
    H64      H        0.53940    0.58190    0.12810    1.000
    C109     C        0.46000    0.46200    0.07850    1.000
    H65      H        0.43800    0.43170    0.06700    1.000
    C110     C        0.56100    0.51220    0.14600    1.000
    H66      H        0.61030    0.51630    0.17930    1.000
    C111     C        0.53080    0.46770    0.12970    1.000
    C112     C        0.56990    0.42520    0.16720    1.000
    C113     C        0.92930    0.57023    0.68910    1.000
    C114     C        0.86740    0.52885    0.67190    1.000
    C115     C        0.85030    0.50090    0.71480    1.000
    H67      H        0.87360    0.50880    0.75520    1.000
    C116     C        0.83000    0.51784    0.61280    1.000
    H68      H        0.84030    0.53710    0.58340    1.000
    C117     C        0.79800    0.46040    0.69810    1.000
    H69      H        0.78770    0.44070    0.72720    1.000
    C118     C        0.76220    0.45023    0.63880    1.000
    C119     C        0.77730    0.47859    0.59650    1.000
    H70      H        0.75180    0.47140    0.55610    1.000
    C120     C        0.72710    0.36698    0.63780    1.000
    C121     C        0.65720    0.33503    0.62400    1.000
    H71      H        0.60030    0.34560    0.60460    1.000
    C122     C        0.81150    0.35125    0.66540    1.000
    H72      H        0.85810    0.37270    0.67510    1.000
    C123     C        0.67220    0.28797    0.63880    1.000
    H73      H        0.62500    0.26690    0.63040    1.000
    C124     C        0.75770    0.27123    0.66660    1.000
    C125     C        0.82690    0.30349    0.67860    1.000
    H74      H        0.88430    0.29290    0.69580    1.000
    C126     C        0.77310    0.22029    0.68320    1.000
    C127     C        0.14700    0.62002    0.59790    1.000
    C128     C        0.08720    0.62745    0.53650    1.000
    C129     C        0.01620    0.65680    0.52420    1.000
    H75      H        0.00040    0.67110    0.55530    1.000
    C130     C        0.10730    0.60430    0.48960    1.000
    H76      H        0.15490    0.58350    0.49810    1.000
    C131     C        0.96720    0.66550    0.46490    1.000
    H77      H        0.91910    0.68600    0.45590    1.000
    C132     C        0.05800    0.61170    0.43150    1.000
    H78      H        0.07060    0.59540    0.40060    1.000
    C133     C        0.99070    0.64310    0.41920    1.000
    C134     C        0.88700    0.68580    0.34020    1.000
    C135     C        0.91500    0.73160    0.34560    1.000
    H79      H        0.97330    0.73890    0.36630    1.000
    C136     C        0.80090    0.67310    0.31070    1.000
    H80      H        0.78320    0.64150    0.30820    1.000
    C137     C        0.85610    0.76730    0.32000    1.000
    H81      H        0.87450    0.79880    0.32280    1.000
    C138     C        0.74200    0.70860    0.28520    1.000
    H82      H        0.68390    0.70100    0.26450    1.000
    C139     C        0.76900    0.75578    0.29010    1.000
    C140     C        0.70320    0.79325    0.26150    1.000
    C141     C        0.40810    0.69401    0.69860    1.000
    C142     C        0.41800    0.74441    0.68070    1.000
    C143     C        0.34670    0.77350    0.66220    1.000
    H83      H        0.29070    0.76110    0.65710    1.000
    C144     C        0.49890    0.76330    0.68560    1.000
    H84      H        0.54830    0.74380    0.69720    1.000
    C145     C        0.35600    0.82130    0.65100    1.000
    H85      H        0.30680    0.84090    0.63880    1.000
    C146     C        0.50900    0.81030    0.67400    1.000
    H86      H        0.56450    0.82240    0.67700    1.000
    C147     C        0.43720    0.83905    0.65800    1.000
    C148     C        0.42180    0.92115    0.68010    1.000
    C149     C        0.40860    0.91240    0.73350    1.000
    H87      H        0.41870    0.88230    0.75040    1.000
    C150     C        0.41540    0.96641    0.65780    1.000
    H88      H        0.42880    0.97290    0.62260    1.000
    C151     C        0.37990    0.94856    0.76270    1.000
    H89      H        0.36840    0.94220    0.79860    1.000
    C152     C        0.38900    0.00184    0.68830    1.000
    H90      H        0.38520    0.03270    0.67350    1.000
    C153     C        0.36790    0.99371    0.73970    1.000
    C154     C        0.33120    0.03211    0.76810    1.000
    C155     C        0.46140    0.55091    0.69890    1.000
    C156     C        0.45760    0.50820    0.66040    1.000
    C157     C        0.39300    0.50450    0.60700    1.000
    H91      H        0.35210    0.52880    0.59410    1.000
    C158     C        0.51520    0.47190    0.67880    1.000
    H92      H        0.56040    0.47460    0.71490    1.000
    C159     C        0.38820    0.46480    0.57180    1.000
    H93      H        0.34570    0.46290    0.53440    1.000
    C160     C        0.50850    0.43110    0.64550    1.000
    H94      H        0.54670    0.40580    0.65960    1.000
    C161     C        0.44510    0.42850    0.59150    1.000
    C162     C        0.40210    0.38490    0.49840    1.000
    C163     C        0.31530    0.37290    0.47440    1.000
    H95      H        0.28010    0.36800    0.49910    1.000
    C164     C        0.45310    0.39360    0.46400    1.000
    H96      H        0.51110    0.40340    0.48130    1.000
    C165     C        0.28020    0.36800    0.41220    1.000
    H97      H        0.22120    0.36000    0.39520    1.000
    C166     C        0.41950    0.38810    0.40170    1.000
    H98      H        0.45560    0.39330    0.37780    1.000
    C167     C        0.33300    0.37500    0.37600    1.000
    C168     C        0.29590    0.36962    0.30890    1.000
    O32      O        0.69030    0.57773    0.84133    1.000
    O33      O        0.82300    0.58052    0.82930    1.000
    O34      O        0.81190    0.36254    0.87710    1.000
    O35      O        0.54270    0.19256    0.85205    1.000
    O36      O        0.55710    0.19131    0.76177    1.000
    O37      O        0.01570    0.60245    0.87616    1.000
    O38      O        0.08130    0.64139    0.82081    1.000
    O39      O        0.42090    0.58623    0.03120    1.000
    O40      O        0.64880    0.42894    0.19990    1.000
    O41      O        0.52420    0.38905    0.16499    1.000
    O42      O        0.94820    0.58808    0.74255    1.000
    O43      O        0.96330    0.58640    0.65205    1.000
    O44      O        0.70410    0.41261    0.61900    1.000
    O45      O        0.70630    0.19475    0.67958    1.000
    O46      O        0.85000    0.20510    0.69800    1.000
    O47      O        0.12890    0.63831    0.64283    1.000
    O48      O        0.21530    0.59636    0.60542    1.000
    O49      O        0.94540    0.64820    0.36030    1.000
    O50      O        0.62430    0.78160    0.23868    1.000
    O51      O        0.72660    0.83648    0.26269    1.000
    O52      O        0.33210    0.67694    0.68451    1.000
    O53      O        0.47590    0.67274    0.72755    1.000
    O54      O        0.44970    0.88690    0.64650    1.000
    O55      O        0.28350    0.02309    0.79976    1.000
    O56      O        0.34650    0.07488    0.75676    1.000
    O57      O        0.39340    0.57658    0.68593    1.000
    O58      O        0.52900    0.55875    0.74149    1.000
    O59      O        0.44140    0.38584    0.56070    1.000
    O60      O        0.21560    0.36290    0.28783    1.000
    O61      O        0.34860    0.37304    0.27956    1.000
    O62      O        0.61700    0.66100    0.89510    1.000
    H99      H        0.61550    0.67210    0.92860    1.000
    H100     H        0.66490    0.64570    0.90150    1.000
    Tb5      Tb       0.89318    0.64252    0.80521    1.000
    Tb6      Tb       0.06013    0.64079    0.71878    1.000
    Tb7      Tb       0.27976    0.60566    0.71009    1.000
    Tb8      Tb       0.58516    0.63078    0.79299    1.000
    C169     C        0.26010    0.94130    0.33870    1.000
    C170     C        0.27000    0.99367    0.34720    1.000
    C171     C        0.19740    0.02360    0.33710    1.000
    H101     H        0.14090    0.01090    0.32540    1.000
    C172     C        0.35400    0.01327    0.36570    1.000
    H102     H        0.40310    0.99370    0.37250    1.000
    C173     C        0.20890    0.07205    0.34420    1.000
    H103     H        0.16020    0.09210    0.33580    1.000
    C174     C        0.36480    0.06166    0.37410    1.000
    H104     H        0.42100    0.07470    0.38700    1.000
    C175     C        0.29210    0.09041    0.36350    1.000
    C176     C        0.24720    0.17220    0.36000    1.000
    C177     C        0.21710    0.19190    0.40150    1.000
    H105     H        0.23390    0.17960    0.44020    1.000
    C178     C        0.22030    0.18810    0.30310    1.000
    H106     H        0.23850    0.17310    0.27360    1.000
    C179     C        0.16070    0.23070    0.38750    1.000
    H107     H        0.13990    0.24430    0.41670    1.000
    C180     C        0.16480    0.22740    0.28890    1.000
    H108     H        0.14760    0.23890    0.24970    1.000
    C181     C        0.13560    0.24917    0.33000    1.000
    C182     C        0.07640    0.29104    0.31480    1.000
    C183     C        0.58410    0.88311    0.36650    1.000
    C184     C        0.67250    0.89337    0.41020    1.000
    C185     C        0.68070    0.92030    0.46070    1.000
    H109     H        0.63060    0.93270    0.46760    1.000
    C186     C        0.74710    0.87650    0.40050    1.000
    H110     H        0.74220    0.85910    0.36590    1.000
    C187     C        0.76350    0.92910    0.50160    1.000
    H111     H        0.76870    0.94720    0.53570    1.000
    C188     C        0.83070    0.88460    0.44090    1.000
    H112     H        0.88080    0.87240    0.43380    1.000
    C189     C        0.83700    0.91100    0.49110    1.000
    C190     C        0.95170    0.95510    0.56220    1.000
    C191     C        0.92160    0.99920    0.54410    1.000
    H113     H        0.87540    0.00340    0.50890    1.000
    C192     C        0.02070    0.94860    0.61450    1.000
    H114     H        0.03940    0.91810    0.62810    1.000
    C193     C        0.96000    0.03800    0.57850    1.000
    H115     H        0.93800    0.06830    0.56700    1.000
    C194     C        0.06100    0.98780    0.64600    1.000
    H116     H        0.11030    0.98370    0.67930    1.000
    C195     C        0.03080    0.03230    0.62970    1.000
    C196     C        0.06990    0.07480    0.66720    1.000
    C197     C        0.42930    0.92977    0.18910    1.000
    C198     C        0.36740    0.97115    0.17190    1.000
    C199     C        0.35030    0.99910    0.21480    1.000
    H117     H        0.37360    0.99120    0.25520    1.000
    C200     C        0.33000    0.98216    0.11280    1.000
    H118     H        0.34030    0.96290    0.08340    1.000
    C201     C        0.29800    0.03960    0.19810    1.000
    H119     H        0.28770    0.05930    0.22720    1.000
    C202     C        0.26220    0.04977    0.13880    1.000
    C203     C        0.27730    0.02141    0.09650    1.000
    H120     H        0.25180    0.02860    0.05610    1.000
    C204     C        0.22710    0.13302    0.13780    1.000
    C205     C        0.15720    0.16497    0.12400    1.000
    H121     H        0.10030    0.15440    0.10460    1.000
    C206     C        0.31150    0.14875    0.16540    1.000
    H122     H        0.35810    0.12730    0.17510    1.000
    C207     C        0.17220    0.21203    0.13880    1.000
    H123     H        0.12500    0.23310    0.13040    1.000
    C208     C        0.25770    0.22877    0.16660    1.000
    C209     C        0.32690    0.19651    0.17860    1.000
    H124     H        0.38430    0.20710    0.19580    1.000
    C210     C        0.27310    0.27971    0.18320    1.000
    C211     C        0.64700    0.87998    0.09790    1.000
    C212     C        0.58720    0.87255    0.03650    1.000
    C213     C        0.51620    0.84320    0.02420    1.000
    H125     H        0.50040    0.82890    0.05530    1.000
    C214     C        0.60730    0.89570    0.98960    1.000
    H126     H        0.65490    0.91650    0.99810    1.000
    C215     C        0.46720    0.83450    0.96490    1.000
    H127     H        0.41910    0.81400    0.95590    1.000
    C216     C        0.55800    0.88830    0.93150    1.000
    H128     H        0.57060    0.90460    0.90060    1.000
    C217     C        0.49070    0.85690    0.91920    1.000
    C218     C        0.38700    0.81420    0.84020    1.000
    C219     C        0.41500    0.76840    0.84560    1.000
    H129     H        0.47330    0.76110    0.86630    1.000
    C220     C        0.30090    0.82690    0.81070    1.000
    H130     H        0.28320    0.85850    0.80820    1.000
    C221     C        0.35610    0.73270    0.82000    1.000
    H131     H        0.37450    0.70120    0.82280    1.000
    C222     C        0.24200    0.79140    0.78520    1.000
    H132     H        0.18390    0.79900    0.76450    1.000
    C223     C        0.26900    0.74422    0.79010    1.000
    C224     C        0.20320    0.70675    0.76150    1.000
    C225     C        0.90810    0.80599    0.19860    1.000
    C226     C        0.91800    0.75559    0.18070    1.000
    C227     C        0.84670    0.72650    0.16220    1.000
    H133     H        0.79070    0.73890    0.15710    1.000
    C228     C        0.99890    0.73670    0.18560    1.000
    H134     H        0.04830    0.75620    0.19720    1.000
    C229     C        0.85600    0.67870    0.15100    1.000
    H135     H        0.80680    0.65910    0.13880    1.000
    C230     C        0.00900    0.68970    0.17400    1.000
    H136     H        0.06450    0.67760    0.17700    1.000
    C231     C        0.93720    0.66095    0.15800    1.000
    C232     C        0.92180    0.57885    0.18010    1.000
    C233     C        0.90860    0.58760    0.23350    1.000
    H137     H        0.91870    0.61770    0.25040    1.000
    C234     C        0.91540    0.53359    0.15780    1.000
    H138     H        0.92880    0.52710    0.12260    1.000
    C235     C        0.87990    0.55144    0.26270    1.000
    H139     H        0.86840    0.55780    0.29860    1.000
    C236     C        0.88900    0.49816    0.18830    1.000
    H140     H        0.88520    0.46730    0.17350    1.000
    C237     C        0.86790    0.50629    0.23970    1.000
    C238     C        0.83120    0.46789    0.26810    1.000
    C239     C        0.96140    0.94909    0.19890    1.000
    C240     C        0.95760    0.99180    0.16040    1.000
    C241     C        0.89300    0.99550    0.10700    1.000
    H141     H        0.85210    0.97120    0.09410    1.000
    C242     C        0.01520    0.02810    0.17880    1.000
    H142     H        0.06040    0.02540    0.21490    1.000
    C243     C        0.88820    0.03520    0.07180    1.000
    H143     H        0.84570    0.03710    0.03440    1.000
    C244     C        0.00850    0.06890    0.14550    1.000
    H144     H        0.04670    0.09420    0.15960    1.000
    C245     C        0.94510    0.07150    0.09150    1.000
    C246     C        0.90210    0.11510    0.99840    1.000
    C247     C        0.81530    0.12710    0.97440    1.000
    H145     H        0.78010    0.13200    0.99910    1.000
    C248     C        0.95310    0.10640    0.96400    1.000
    H146     H        0.01110    0.09660    0.98130    1.000
    C249     C        0.78020    0.13200    0.91220    1.000
    H147     H        0.72120    0.14000    0.89520    1.000
    C250     C        0.91950    0.11190    0.90170    1.000
    H148     H        0.95560    0.10670    0.87780    1.000
    C251     C        0.83300    0.12500    0.87600    1.000
    C252     C        0.79590    0.13038    0.80890    1.000
    O63      O        0.19030    0.92227    0.34133    1.000
    O64      O        0.32300    0.91948    0.32930    1.000
    O65      O        0.31190    0.13746    0.37710    1.000
    O66      O        0.04270    0.30744    0.35205    1.000
    O67      O        0.05710    0.30869    0.26177    1.000
    O68      O        0.51570    0.89755    0.37616    1.000
    O69      O        0.58130    0.85861    0.32081    1.000
    O70      O        0.92090    0.91377    0.53120    1.000
    O71      O        0.14880    0.07106    0.69990    1.000
    O72      O        0.02420    0.11095    0.66499    1.000
    O73      O        0.44820    0.91192    0.24255    1.000
    O74      O        0.46330    0.91360    0.15205    1.000
    O75      O        0.20410    0.08739    0.11900    1.000
    O76      O        0.20630    0.30525    0.17958    1.000
    O77      O        0.35000    0.29490    0.19800    1.000
    O78      O        0.62890    0.86169    0.14283    1.000
    O79      O        0.71530    0.90364    0.10542    1.000
    O80      O        0.44540    0.85180    0.86030    1.000
    O81      O        0.12430    0.71840    0.73868    1.000
    O82      O        0.22660    0.66352    0.76269    1.000
    O83      O        0.83210    0.82306    0.18451    1.000
    O84      O        0.97590    0.82726    0.22755    1.000
    O85      O        0.94970    0.61310    0.14650    1.000
    O86      O        0.78350    0.47691    0.29976    1.000
    O87      O        0.84650    0.42512    0.25676    1.000
    O88      O        0.89340    0.92342    0.18593    1.000
    O89      O        0.02900    0.94125    0.24149    1.000
    O90      O        0.94140    0.11416    0.06070    1.000
    O91      O        0.71560    0.13710    0.78783    1.000
    O92      O        0.84860    0.12696    0.77956    1.000
    O93      O        0.11700    0.83900    0.39510    1.000
    H149     H        0.11550    0.82790    0.42860    1.000
    H150     H        0.16490    0.85430    0.40150    1.000
    Tb9      Tb       0.39318    0.85748    0.30521    1.000
    Tb10     Tb       0.56013    0.85921    0.21878    1.000
    Tb11     Tb       0.77976    0.89434    0.21009    1.000
    Tb12     Tb       0.08516    0.86922    0.29299    1.000
    C253     C        0.23990    0.44130    0.16130    1.000
    C254     C        0.23000    0.49367    0.15280    1.000
    C255     C        0.30260    0.52360    0.16290    1.000
    H151     H        0.35910    0.51090    0.17460    1.000
    C256     C        0.14600    0.51327    0.13430    1.000
    H152     H        0.09690    0.49370    0.12750    1.000
    C257     C        0.29110    0.57205    0.15580    1.000
    H153     H        0.33980    0.59210    0.16420    1.000
    C258     C        0.13520    0.56166    0.12590    1.000
    H154     H        0.07900    0.57470    0.11300    1.000
    C259     C        0.20790    0.59041    0.13650    1.000
    C260     C        0.25280    0.67220    0.14000    1.000
    C261     C        0.28290    0.69190    0.09850    1.000
    H155     H        0.26610    0.67960    0.05980    1.000
    C262     C        0.27970    0.68810    0.19690    1.000
    H156     H        0.26150    0.67310    0.22640    1.000
    C263     C        0.33930    0.73070    0.11250    1.000
    H157     H        0.36010    0.74430    0.08330    1.000
    C264     C        0.33520    0.72740    0.21110    1.000
    H158     H        0.35240    0.73890    0.25030    1.000
    C265     C        0.36440    0.74917    0.17000    1.000
    C266     C        0.42360    0.79104    0.18520    1.000
    C267     C        0.91590    0.38311    0.13350    1.000
    C268     C        0.82750    0.39337    0.08980    1.000
    C269     C        0.81930    0.42030    0.03930    1.000
    H159     H        0.86940    0.43270    0.03240    1.000
    C270     C        0.75290    0.37650    0.09950    1.000
    H160     H        0.75780    0.35910    0.13410    1.000
    C271     C        0.73650    0.42910    0.99840    1.000
    H161     H        0.73130    0.44720    0.96430    1.000
    C272     C        0.66930    0.38460    0.05910    1.000
    H162     H        0.61920    0.37240    0.06620    1.000
    C273     C        0.66300    0.41100    0.00890    1.000
    C274     C        0.54830    0.45510    0.93780    1.000
    C275     C        0.57840    0.49920    0.95590    1.000
    H163     H        0.62460    0.50340    0.99110    1.000
    C276     C        0.47930    0.44860    0.88550    1.000
    H164     H        0.46060    0.41810    0.87190    1.000
    C277     C        0.54000    0.53800    0.92150    1.000
    H165     H        0.56200    0.56830    0.93300    1.000
    C278     C        0.43900    0.48780    0.85400    1.000
    H166     H        0.38970    0.48370    0.82070    1.000
    C279     C        0.46920    0.53230    0.87030    1.000
    C280     C        0.43010    0.57480    0.83280    1.000
    C281     C        0.07070    0.42977    0.31090    1.000
    C282     C        0.13260    0.47115    0.32810    1.000
    C283     C        0.14970    0.49910    0.28520    1.000
    H167     H        0.12640    0.49120    0.24480    1.000
    C284     C        0.17000    0.48216    0.38720    1.000
    H168     H        0.15970    0.46290    0.41660    1.000
    C285     C        0.20200    0.53960    0.30190    1.000
    H169     H        0.21230    0.55930    0.27280    1.000
    C286     C        0.23780    0.54977    0.36120    1.000
    C287     C        0.22270    0.52141    0.40350    1.000
    H170     H        0.24820    0.52860    0.44390    1.000
    C288     C        0.27290    0.63302    0.36220    1.000
    C289     C        0.34280    0.66497    0.37600    1.000
    H171     H        0.39970    0.65440    0.39540    1.000
    C290     C        0.18850    0.64875    0.33460    1.000
    H172     H        0.14190    0.62730    0.32490    1.000
    C291     C        0.32780    0.71203    0.36120    1.000
    H173     H        0.37500    0.73310    0.36960    1.000
    C292     C        0.24230    0.72877    0.33340    1.000
    C293     C        0.17310    0.69651    0.32140    1.000
    H174     H        0.11570    0.70710    0.30420    1.000
    C294     C        0.22690    0.77971    0.31680    1.000
    C295     C        0.85300    0.37998    0.40210    1.000
    C296     C        0.91280    0.37255    0.46350    1.000
    C297     C        0.98380    0.34320    0.47580    1.000
    H175     H        0.99960    0.32890    0.44470    1.000
    C298     C        0.89270    0.39570    0.51040    1.000
    H176     H        0.84510    0.41650    0.50190    1.000
    C299     C        0.03280    0.33450    0.53510    1.000
    H177     H        0.08090    0.31400    0.54410    1.000
    C300     C        0.94200    0.38830    0.56850    1.000
    H178     H        0.92940    0.40460    0.59940    1.000
    C301     C        0.00930    0.35690    0.58080    1.000
    C302     C        0.11300    0.31420    0.65980    1.000
    C303     C        0.08500    0.26840    0.65440    1.000
    H179     H        0.02670    0.26110    0.63370    1.000
    C304     C        0.19910    0.32690    0.68930    1.000
    H180     H        0.21680    0.35850    0.69180    1.000
    C305     C        0.14390    0.23270    0.68000    1.000
    H181     H        0.12550    0.20120    0.67720    1.000
    C306     C        0.25800    0.29140    0.71480    1.000
    H182     H        0.31610    0.29900    0.73550    1.000
    C307     C        0.23100    0.24422    0.70990    1.000
    C308     C        0.29680    0.20675    0.73850    1.000
    C309     C        0.59190    0.30599    0.30140    1.000
    C310     C        0.58200    0.25559    0.31930    1.000
    C311     C        0.65330    0.22650    0.33780    1.000
    H183     H        0.70930    0.23890    0.34290    1.000
    C312     C        0.50110    0.23670    0.31440    1.000
    H184     H        0.45170    0.25620    0.30280    1.000
    C313     C        0.64400    0.17870    0.34900    1.000
    H185     H        0.69320    0.15910    0.36120    1.000
    C314     C        0.49100    0.18970    0.32600    1.000
    H186     H        0.43550    0.17760    0.32300    1.000
    C315     C        0.56280    0.16095    0.34200    1.000
    C316     C        0.57820    0.07885    0.31990    1.000
    C317     C        0.59140    0.08760    0.26650    1.000
    H187     H        0.58130    0.11770    0.24960    1.000
    C318     C        0.58460    0.03359    0.34220    1.000
    H188     H        0.57120    0.02710    0.37740    1.000
    C319     C        0.62010    0.05144    0.23730    1.000
    H189     H        0.63160    0.05780    0.20140    1.000
    C320     C        0.61100    0.99816    0.31170    1.000
    H190     H        0.61480    0.96730    0.32650    1.000
    C321     C        0.63210    0.00629    0.26030    1.000
    C322     C        0.66880    0.96789    0.23190    1.000
    C323     C        0.53860    0.44909    0.30110    1.000
    C324     C        0.54240    0.49180    0.33960    1.000
    C325     C        0.60700    0.49550    0.39300    1.000
    H191     H        0.64790    0.47120    0.40590    1.000
    C326     C        0.48480    0.52810    0.32120    1.000
    H192     H        0.43960    0.52540    0.28510    1.000
    C327     C        0.61180    0.53520    0.42820    1.000
    H193     H        0.65430    0.53710    0.46560    1.000
    C328     C        0.49150    0.56890    0.35450    1.000
    H194     H        0.45330    0.59420    0.34040    1.000
    C329     C        0.55490    0.57150    0.40850    1.000
    C330     C        0.59790    0.61510    0.50160    1.000
    C331     C        0.68470    0.62710    0.52560    1.000
    H195     H        0.71990    0.63200    0.50090    1.000
    C332     C        0.54690    0.60640    0.53600    1.000
    H196     H        0.48890    0.59660    0.51870    1.000
    C333     C        0.71980    0.63200    0.58780    1.000
    H197     H        0.77880    0.64000    0.60480    1.000
    C334     C        0.58050    0.61190    0.59830    1.000
    H198     H        0.54440    0.60670    0.62220    1.000
    C335     C        0.66700    0.62500    0.62400    1.000
    C336     C        0.70410    0.63038    0.69110    1.000
    O94      O        0.30970    0.42227    0.15867    1.000
    O95      O        0.17700    0.41948    0.17070    1.000
    O96      O        0.18810    0.63746    0.12290    1.000
    O97      O        0.45730    0.80744    0.14795    1.000
    O98      O        0.44290    0.80869    0.23823    1.000
    O99      O        0.98430    0.39755    0.12384    1.000
    O100     O        0.91870    0.35861    0.17919    1.000
    O101     O        0.57910    0.41377    0.96880    1.000
    O102     O        0.35120    0.57106    0.80010    1.000
    O103     O        0.47580    0.61095    0.83501    1.000
    O104     O        0.05180    0.41192    0.25745    1.000
    O105     O        0.03670    0.41360    0.34795    1.000
    O106     O        0.29590    0.58739    0.38100    1.000
    O107     O        0.29370    0.80525    0.32042    1.000
    O108     O        0.15000    0.79490    0.30200    1.000
    O109     O        0.87110    0.36169    0.35717    1.000
    O110     O        0.78470    0.40364    0.39458    1.000
    O111     O        0.05460    0.35180    0.63970    1.000
    O112     O        0.37570    0.21840    0.76132    1.000
    O113     O        0.27340    0.16352    0.73731    1.000
    O114     O        0.66790    0.32306    0.31549    1.000
    O115     O        0.52410    0.32726    0.27245    1.000
    O116     O        0.55030    0.11310    0.35350    1.000
    O117     O        0.71650    0.97691    0.20024    1.000
    O118     O        0.65350    0.92512    0.24324    1.000
    O119     O        0.60660    0.42342    0.31407    1.000
    O120     O        0.47100    0.44125    0.25851    1.000
    O121     O        0.55860    0.61416    0.43930    1.000
    O122     O        0.78440    0.63710    0.71217    1.000
    O123     O        0.65140    0.62696    0.72044    1.000
    O124     O        0.38300    0.33900    0.10490    1.000
    H199     H        0.38450    0.32790    0.07140    1.000
    H200     H        0.33510    0.35430    0.09850    1.000
    Tb13     Tb       0.10682    0.35748    0.19479    1.000
    Tb14     Tb       0.93987    0.35921    0.28122    1.000
    Tb15     Tb       0.72024    0.39434    0.28991    1.000
    Tb16     Tb       0.41484    0.36922    0.20701    1.000
