# CIF file generated by openbabel 3.1.0, see https://openbabel.org
data_I
_chemical_name_common 'image0'
_cell_length_a 12.78
_cell_length_b 13.358
_cell_length_c 28.668
_cell_angle_alpha 90
_cell_angle_beta 90
_cell_angle_gamma 90
_space_group_name_H-M_alt 'P 1'
_space_group_name_Hall 'P 1'
loop_
    _symmetry_equiv_pos_as_xyz
    x,y,z
loop_
    _atom_site_label
    _atom_site_type_symbol
    _atom_site_fract_x
    _atom_site_fract_y
    _atom_site_fract_z
    _atom_site_occupancy
    Eu1      Eu       0.58915    0.45801    0.93004    1.000
    O1       O        0.59050    0.56290    0.86600    1.000
    O2       O        0.66420    0.71150    0.88090    1.000
    O3       O        0.53960    0.85360    0.82900    1.000
    O4       O        0.68660    0.91410    0.80720    1.000
    O5       O        0.94690    0.89650    0.61908    1.000
    O6       O        0.95140    0.83850    0.54712    1.000
    O7       O        0.66680    0.61150    0.49520    1.000
    O8       O        0.55270    0.55310    0.54450    1.000
    N1       N        0.62260    0.84710    0.80830    1.000
    C1       C        0.63000    0.64470    0.85440    1.000
    C2       C        0.63460    0.66340    0.80230    1.000
    C3       C        0.64310    0.75590    0.78140    1.000
    C4       C        0.66580    0.77010    0.73470    1.000
    H1       H        0.67400    0.83450    0.72280    1.000
    C5       C        0.67630    0.68690    0.70550    1.000
    C6       C        0.66280    0.59240    0.72500    1.000
    H2       H        0.66760    0.53610    0.70600    1.000
    C7       C        0.64210    0.58050    0.77250    1.000
    H3       H        0.63300    0.51650    0.78460    1.000
    C8       C        0.70510    0.70030    0.65580    1.000
    C9       C        0.78560    0.76540    0.64390    1.000
    H4       H        0.81770    0.80310    0.66720    1.000
    C10      C        0.81950    0.77540    0.59800    1.000
    C11      C        0.76830    0.72100    0.56340    1.000
    H5       H        0.78960    0.72770    0.53260    1.000
    C12      C        0.68710    0.65780    0.57390    1.000
    C13      C        0.65570    0.64660    0.62100    1.000
    H6       H        0.60160    0.60290    0.62850    1.000
    C14      C        0.91060    0.84070    0.58740    1.000
    C15      C        0.63140    0.60350    0.53540    1.000
    Eu2      Eu       0.91085    0.04199    0.43004    1.000
    O9       O        0.90950    0.93710    0.36600    1.000
    O10      O        0.83580    0.78850    0.38090    1.000
    O11      O        0.96040    0.64640    0.32900    1.000
    O12      O        0.81340    0.58590    0.30720    1.000
    O13      O        0.55310    0.60350    0.11908    1.000
    O14      O        0.54860    0.66150    0.04712    1.000
    O15      O        0.83320    0.88850    0.99520    1.000
    O16      O        0.94730    0.94690    0.04450    1.000
    N2       N        0.87740    0.65290    0.30830    1.000
    C16      C        0.87000    0.85530    0.35440    1.000
    C17      C        0.86540    0.83660    0.30230    1.000
    C18      C        0.85690    0.74410    0.28140    1.000
    C19      C        0.83420    0.72990    0.23470    1.000
    H7       H        0.82600    0.66550    0.22280    1.000
    C20      C        0.82370    0.81310    0.20550    1.000
    C21      C        0.83720    0.90760    0.22500    1.000
    H8       H        0.83240    0.96390    0.20600    1.000
    C22      C        0.85790    0.91950    0.27250    1.000
    H9       H        0.86700    0.98350    0.28460    1.000
    C23      C        0.79490    0.79970    0.15580    1.000
    C24      C        0.71440    0.73460    0.14390    1.000
    H10      H        0.68230    0.69690    0.16720    1.000
    C25      C        0.68050    0.72460    0.09800    1.000
    C26      C        0.73170    0.77900    0.06340    1.000
    H11      H        0.71040    0.77230    0.03260    1.000
    C27      C        0.81290    0.84220    0.07390    1.000
    C28      C        0.84430    0.85340    0.12100    1.000
    H12      H        0.89840    0.89710    0.12850    1.000
    C29      C        0.58940    0.65930    0.08740    1.000
    C30      C        0.86860    0.89650    0.03540    1.000
    Eu3      Eu       0.41085    0.45801    0.56996    1.000
    O17      O        0.40950    0.56290    0.63400    1.000
    O18      O        0.33580    0.71150    0.61910    1.000
    O19      O        0.46040    0.85360    0.67100    1.000
    O20      O        0.31340    0.91410    0.69280    1.000
    O21      O        0.05310    0.89650    0.88092    1.000
    O22      O        0.04860    0.83850    0.95288    1.000
    O23      O        0.33320    0.61150    0.00480    1.000
    O24      O        0.44730    0.55310    0.95550    1.000
    N3       N        0.37740    0.84710    0.69170    1.000
    C31      C        0.37000    0.64470    0.64560    1.000
    C32      C        0.36540    0.66340    0.69770    1.000
    C33      C        0.35690    0.75590    0.71860    1.000
    C34      C        0.33420    0.77010    0.76530    1.000
    H13      H        0.32600    0.83450    0.77720    1.000
    C35      C        0.32370    0.68690    0.79450    1.000
    C36      C        0.33720    0.59240    0.77500    1.000
    H14      H        0.33240    0.53610    0.79400    1.000
    C37      C        0.35790    0.58050    0.72750    1.000
    H15      H        0.36700    0.51650    0.71540    1.000
    C38      C        0.29490    0.70030    0.84420    1.000
    C39      C        0.21440    0.76540    0.85610    1.000
    H16      H        0.18230    0.80310    0.83280    1.000
    C40      C        0.18050    0.77540    0.90200    1.000
    C41      C        0.23170    0.72100    0.93660    1.000
    H17      H        0.21040    0.72770    0.96740    1.000
    C42      C        0.31290    0.65780    0.92610    1.000
    C43      C        0.34430    0.64660    0.87900    1.000
    H18      H        0.39840    0.60290    0.87150    1.000
    C44      C        0.08940    0.84070    0.91260    1.000
    C45      C        0.36860    0.60350    0.96460    1.000
    Eu4      Eu       0.08915    0.04199    0.06996    1.000
    O25      O        0.09050    0.93710    0.13400    1.000
    O26      O        0.16420    0.78850    0.11910    1.000
    O27      O        0.03960    0.64640    0.17100    1.000
    O28      O        0.18660    0.58590    0.19280    1.000
    O29      O        0.44690    0.60350    0.38092    1.000
    O30      O        0.45140    0.66150    0.45288    1.000
    O31      O        0.16680    0.88850    0.50480    1.000
    O32      O        0.05270    0.94690    0.45550    1.000
    N4       N        0.12260    0.65290    0.19170    1.000
    C46      C        0.13000    0.85530    0.14560    1.000
    C47      C        0.13460    0.83660    0.19770    1.000
    C48      C        0.14310    0.74410    0.21860    1.000
    C49      C        0.16580    0.72990    0.26530    1.000
    H19      H        0.17400    0.66550    0.27720    1.000
    C50      C        0.17630    0.81310    0.29450    1.000
    C51      C        0.16280    0.90760    0.27500    1.000
    H20      H        0.16760    0.96390    0.29400    1.000
    C52      C        0.14210    0.91950    0.22750    1.000
    H21      H        0.13300    0.98350    0.21540    1.000
    C53      C        0.20510    0.79970    0.34420    1.000
    C54      C        0.28560    0.73460    0.35610    1.000
    H22      H        0.31770    0.69690    0.33280    1.000
    C55      C        0.31950    0.72460    0.40200    1.000
    C56      C        0.26830    0.77900    0.43660    1.000
    H23      H        0.28960    0.77230    0.46740    1.000
    C57      C        0.18710    0.84220    0.42610    1.000
    C58      C        0.15570    0.85340    0.37900    1.000
    H24      H        0.10160    0.89710    0.37150    1.000
    C59      C        0.41060    0.65930    0.41260    1.000
    C60      C        0.13140    0.89650    0.46460    1.000
    Eu5      Eu       0.41085    0.54199    0.06996    1.000
    O33      O        0.40950    0.43710    0.13400    1.000
    O34      O        0.33580    0.28850    0.11910    1.000
    O35      O        0.46040    0.14640    0.17100    1.000
    O36      O        0.31340    0.08590    0.19280    1.000
    O37      O        0.05310    0.10350    0.38092    1.000
    O38      O        0.04860    0.16150    0.45288    1.000
    O39      O        0.33320    0.38850    0.50480    1.000
    O40      O        0.44730    0.44690    0.45550    1.000
    N5       N        0.37740    0.15290    0.19170    1.000
    C61      C        0.37000    0.35530    0.14560    1.000
    C62      C        0.36540    0.33660    0.19770    1.000
    C63      C        0.35690    0.24410    0.21860    1.000
    C64      C        0.33420    0.22990    0.26530    1.000
    H25      H        0.32600    0.16550    0.27720    1.000
    C65      C        0.32370    0.31310    0.29450    1.000
    C66      C        0.33720    0.40760    0.27500    1.000
    H26      H        0.33240    0.46390    0.29400    1.000
    C67      C        0.35790    0.41950    0.22750    1.000
    H27      H        0.36700    0.48350    0.21540    1.000
    C68      C        0.29490    0.29970    0.34420    1.000
    C69      C        0.21440    0.23460    0.35610    1.000
    H28      H        0.18230    0.19690    0.33280    1.000
    C70      C        0.18050    0.22460    0.40200    1.000
    C71      C        0.23170    0.27900    0.43660    1.000
    H29      H        0.21040    0.27230    0.46740    1.000
    C72      C        0.31290    0.34220    0.42610    1.000
    C73      C        0.34430    0.35340    0.37900    1.000
    H30      H        0.39840    0.39710    0.37150    1.000
    C74      C        0.08940    0.15930    0.41260    1.000
    C75      C        0.36860    0.39650    0.46460    1.000
    Eu6      Eu       0.08915    0.95801    0.56996    1.000
    O41      O        0.09050    0.06290    0.63400    1.000
    O42      O        0.16420    0.21150    0.61910    1.000
    O43      O        0.03960    0.35360    0.67100    1.000
    O44      O        0.18660    0.41410    0.69280    1.000
    O45      O        0.44690    0.39650    0.88092    1.000
    O46      O        0.45140    0.33850    0.95288    1.000
    O47      O        0.16680    0.11150    0.00480    1.000
    O48      O        0.05270    0.05310    0.95550    1.000
    N6       N        0.12260    0.34710    0.69170    1.000
    C76      C        0.13000    0.14470    0.64560    1.000
    C77      C        0.13460    0.16340    0.69770    1.000
    C78      C        0.14310    0.25590    0.71860    1.000
    C79      C        0.16580    0.27010    0.76530    1.000
    H31      H        0.17400    0.33450    0.77720    1.000
    C80      C        0.17630    0.18690    0.79450    1.000
    C81      C        0.16280    0.09240    0.77500    1.000
    H32      H        0.16760    0.03610    0.79400    1.000
    C82      C        0.14210    0.08050    0.72750    1.000
    H33      H        0.13300    0.01650    0.71540    1.000
    C83      C        0.20510    0.20030    0.84420    1.000
    C84      C        0.28560    0.26540    0.85610    1.000
    H34      H        0.31770    0.30310    0.83280    1.000
    C85      C        0.31950    0.27540    0.90200    1.000
    C86      C        0.26830    0.22100    0.93660    1.000
    H35      H        0.28960    0.22770    0.96740    1.000
    C87      C        0.18710    0.15780    0.92610    1.000
    C88      C        0.15570    0.14660    0.87900    1.000
    H36      H        0.10160    0.10290    0.87150    1.000
    C89      C        0.41060    0.34070    0.91260    1.000
    C90      C        0.13140    0.10350    0.96460    1.000
    Eu7      Eu       0.58915    0.54199    0.43004    1.000
    O49      O        0.59050    0.43710    0.36600    1.000
    O50      O        0.66420    0.28850    0.38090    1.000
    O51      O        0.53960    0.14640    0.32900    1.000
    O52      O        0.68660    0.08590    0.30720    1.000
    O53      O        0.94690    0.10350    0.11908    1.000
    O54      O        0.95140    0.16150    0.04712    1.000
    O55      O        0.66680    0.38850    0.99520    1.000
    O56      O        0.55270    0.44690    0.04450    1.000
    N7       N        0.62260    0.15290    0.30830    1.000
    C91      C        0.63000    0.35530    0.35440    1.000
    C92      C        0.63460    0.33660    0.30230    1.000
    C93      C        0.64310    0.24410    0.28140    1.000
    C94      C        0.66580    0.22990    0.23470    1.000
    H37      H        0.67400    0.16550    0.22280    1.000
    C95      C        0.67630    0.31310    0.20550    1.000
    C96      C        0.66280    0.40760    0.22500    1.000
    H38      H        0.66760    0.46390    0.20600    1.000
    C97      C        0.64210    0.41950    0.27250    1.000
    H39      H        0.63300    0.48350    0.28460    1.000
    C98      C        0.70510    0.29970    0.15580    1.000
    C99      C        0.78560    0.23460    0.14390    1.000
    H40      H        0.81770    0.19690    0.16720    1.000
    C100     C        0.81950    0.22460    0.09800    1.000
    C101     C        0.76830    0.27900    0.06340    1.000
    H41      H        0.78960    0.27230    0.03260    1.000
    C102     C        0.68710    0.34220    0.07390    1.000
    C103     C        0.65570    0.35340    0.12100    1.000
    H42      H        0.60160    0.39710    0.12850    1.000
    C104     C        0.91060    0.15930    0.08740    1.000
    C105     C        0.63140    0.39650    0.03540    1.000
    Eu8      Eu       0.91085    0.95801    0.93004    1.000
    O57      O        0.90950    0.06290    0.86600    1.000
    O58      O        0.83580    0.21150    0.88090    1.000
    O59      O        0.96040    0.35360    0.82900    1.000
    O60      O        0.81340    0.41410    0.80720    1.000
    O61      O        0.55310    0.39650    0.61908    1.000
    O62      O        0.54860    0.33850    0.54712    1.000
    O63      O        0.83320    0.11150    0.49520    1.000
    O64      O        0.94730    0.05310    0.54450    1.000
    N8       N        0.87740    0.34710    0.80830    1.000
    C106     C        0.87000    0.14470    0.85440    1.000
    C107     C        0.86540    0.16340    0.80230    1.000
    C108     C        0.85690    0.25590    0.78140    1.000
    C109     C        0.83420    0.27010    0.73470    1.000
    H43      H        0.82600    0.33450    0.72280    1.000
    C110     C        0.82370    0.18690    0.70550    1.000
    C111     C        0.83720    0.09240    0.72500    1.000
    H44      H        0.83240    0.03610    0.70600    1.000
    C112     C        0.85790    0.08050    0.77250    1.000
    H45      H        0.86700    0.01650    0.78460    1.000
    C113     C        0.79490    0.20030    0.65580    1.000
    C114     C        0.71440    0.26540    0.64390    1.000
    H46      H        0.68230    0.30310    0.66720    1.000
    C115     C        0.68050    0.27540    0.59800    1.000
    C116     C        0.73170    0.22100    0.56340    1.000
    H47      H        0.71040    0.22770    0.53260    1.000
    C117     C        0.81290    0.15780    0.57390    1.000
    C118     C        0.84430    0.14660    0.62100    1.000
    H48      H        0.89840    0.10290    0.62850    1.000
    C119     C        0.58940    0.34070    0.58740    1.000
    C120     C        0.86860    0.10350    0.53540    1.000
