# CIF file generated by openbabel 3.1.0, see https://openbabel.org
data_I
_chemical_name_common 'LALFUB_clean'
_cell_length_a 6.0915
_cell_length_b 9.961
_cell_length_c 13.361
_cell_angle_alpha 68.87
_cell_angle_beta 81.01
_cell_angle_gamma 76.72
_space_group_name_H-M_alt 'P 1'
_space_group_name_Hall 'P 1'
loop_
    _symmetry_equiv_pos_as_xyz
    x,y,z
loop_
    _atom_site_label
    _atom_site_type_symbol
    _atom_site_fract_x
    _atom_site_fract_y
    _atom_site_fract_z
    _atom_site_occupancy
    Eu1      Eu       0.66828    0.38562    0.80391    1.000
    Eu2      Eu       0.33172    0.61438    0.19609    1.000
    H1       H        0.82770    0.04520    0.02680    1.000
    H2       H        0.20190    0.32650    0.63080    1.000
    H3       H        0.01020    0.49890    0.76880    1.000
    H4       H        0.91800    0.57910    0.83680    1.000
    H5       H        0.17230    0.95480    0.97320    1.000
    H6       H        0.79810    0.67350    0.36920    1.000
    H7       H        0.98980    0.50110    0.23120    1.000
    H8       H        0.08200    0.42090    0.16320    1.000
    C1       C        0.21070    0.23280    0.85820    1.000
    C2       C        0.36690    0.10450    0.93140    1.000
    C3       C        0.69120    0.02890    0.01490    1.000
    C4       C        0.55020    0.61730    0.56040    1.000
    C5       C        0.78860    0.55520    0.52740    1.000
    C6       C        0.11500    0.39860    0.57830    1.000
    C7       C        0.40890    0.56050    0.96650    1.000
    C8       C        0.78930    0.76720    0.14180    1.000
    C9       C        0.63310    0.89550    0.06860    1.000
    C10      C        0.30880    0.97110    0.98510    1.000
    C11      C        0.44980    0.38270    0.43960    1.000
    C12      C        0.21140    0.44480    0.47260    1.000
    C13      C        0.88500    0.60140    0.42170    1.000
    C14      C        0.59110    0.43950    0.03350    1.000
    N1       N        0.56090    0.13520    0.94680    1.000
    N2       N        0.90620    0.45330    0.60650    1.000
    N3       N        0.43910    0.86480    0.05320    1.000
    N4       N        0.09380    0.54670    0.39350    1.000
    O1       O        0.28520    0.35160    0.81510    1.000
    O2       O        0.02050    0.21560    0.84770    1.000
    O3       O        0.48640    0.56900    0.65730    1.000
    O4       O        0.43210    0.70990    0.48980    1.000
    O5       O        0.27550    0.63730    0.01350    1.000
    O6       O        0.41510    0.56930    0.87070    1.000
    O7       O        0.90710    0.56590    0.77910    1.000
    O8       O        0.71480    0.64840    0.18490    1.000
    O9       O        0.97950    0.78440    0.15230    1.000
    O10      O        0.51360    0.43100    0.34270    1.000
    O11      O        0.56790    0.29010    0.51020    1.000
    O12      O        0.72450    0.36270    0.98650    1.000
    O13      O        0.58490    0.43070    0.12930    1.000
    O14      O        0.09290    0.43410    0.22090    1.000
