# CIF file generated by openbabel 3.1.0, see https://openbabel.org
data_I
_chemical_name_common 'image0'
_cell_length_a 11.497
_cell_length_b 33.542
_cell_length_c 12.106
_cell_angle_alpha 90
_cell_angle_beta 116.84
_cell_angle_gamma 90
_space_group_name_H-M_alt 'P 1'
_space_group_name_Hall 'P 1'
loop_
    _symmetry_equiv_pos_as_xyz
    x,y,z
loop_
    _atom_site_label
    _atom_site_type_symbol
    _atom_site_fract_x
    _atom_site_fract_y
    _atom_site_fract_z
    _atom_site_occupancy
    C1       C        0.97320    0.11260    0.68170    1.000
    H1       H        0.01140    0.10700    0.76610    1.000
    C2       C        0.04810    0.10860    0.61950    1.000
    H2       H        0.13490    0.10080    0.66100    1.000
    C3       C        0.99080    0.11650    0.49480    1.000
    C4       C        0.86360    0.12760    0.43640    1.000
    H3       H        0.82290    0.13270    0.35180    1.000
    C5       C        0.79570    0.13140    0.50600    1.000
    H4       H        0.70900    0.13950    0.46630    1.000
    C6       C        0.07000    0.11480    0.42250    1.000
    C7       C        0.16660    0.08630    0.44730    1.000
    H5       H        0.18630    0.06780    0.51040    1.000
    C8       C        0.23250    0.08610    0.37600    1.000
    H6       H        0.29380    0.06630    0.38870    1.000
    C9       C        0.11830    0.14220    0.26730    1.000
    H7       H        0.10290    0.16160    0.20730    1.000
    C10      C        0.04750    0.14270    0.33230    1.000
    H8       H        0.98370    0.16210    0.31530    1.000
    C11      C        0.28360    0.11460    0.21650    1.000
    H9       H        0.64900    0.18010    0.83720    1.000
    C12      C        0.41680    0.11040    0.27770    1.000
    H10      H        0.46070    0.10730    0.36310    1.000
    C13      C        0.48320    0.11120    0.20500    1.000
    H11      H        0.57330    0.10820    0.24220    1.000
    C14      C        0.41560    0.11630    0.07830    1.000
    C15      C        0.28320    0.12030    0.02140    1.000
    H12      H        0.23900    0.12400    0.93620    1.000
    C16      C        0.21390    0.11890    0.09120    1.000
    H13      H        0.12350    0.12090    0.05360    1.000
    C17      C        0.48610    0.11950    0.99770    1.000
    C18      C        0.31840    0.18230    0.55910    1.000
    C19      C        0.21620    0.21450    0.52280    1.000
    C20      C        0.14570    0.21920    0.59030    1.000
    H14      H        0.15850    0.20190    0.65470    1.000
    C21      C        0.05660    0.25000    0.56000    1.000
    H15      H        0.01020    0.25350    0.60540    1.000
    C22      C        0.03550    0.27574    0.46350    1.000
    C23      C        0.10370    0.26970    0.39350    1.000
    H16      H        0.08750    0.28600    0.32580    1.000
    C24      C        0.19450    0.23970    0.42550    1.000
    H17      H        0.24190    0.23640    0.38090    1.000
    C25      C        0.93980    0.30906    0.43180    1.000
    C26      C        0.53500    0.07371    0.63320    1.000
    C27      C        0.51920    0.03532    0.56690    1.000
    C28      C        0.43480    0.00619    0.57090    1.000
    H18      H        0.39130    0.01040    0.61860    1.000
    C29      C        0.58510    0.02875    0.49510    1.000
    H19      H        0.64190    0.04790    0.49210    1.000
    C30      C        0.86550    0.07688    0.94850    1.000
    C31      C        0.93700    0.03710    0.97700    1.000
    C32      C        0.99730    0.02180    0.09580    1.000
    H20      H        0.99560    0.03620    0.16070    1.000
    C33      C        0.93990    0.01470    0.88050    1.000
    H21      H        0.89930    0.02440    0.79990    1.000
    N1       N        0.84890    0.12398    0.62630    1.000
    N2       N        0.20990    0.11419    0.28810    1.000
    O1       O        0.60680    0.11776    0.04860    1.000
    O2       O        0.41330    0.12250    0.88560    1.000
    O3       O        0.33040    0.16151    0.65090    1.000
    O4       O        0.38070    0.17762    0.49840    1.000
    O5       O        0.91320    0.32093    0.51570    1.000
    O6       O        0.89600    0.32267    0.32510    1.000
    O7       O        0.59370    0.10164    0.61030    1.000
    O8       O        0.48330    0.07616    0.70550    1.000
    O9       O        0.82630    0.08962    0.84200    1.000
    O10      O        0.85190    0.09381    0.03830    1.000
    O11      O        0.64520    0.15645    0.83330    1.000
    Zn1      Zn       0.74584    0.13947    0.73011    1.000
    Zn2      Zn       0.47635    0.13019    0.76194    1.000
    Zn3      Zn       0.75869    0.14582    0.01157    1.000
    C34      C        0.02680    0.61260    0.81830    1.000
    H22      H        0.98860    0.60700    0.73390    1.000
    C35      C        0.95190    0.60860    0.88050    1.000
    H23      H        0.86510    0.60080    0.83900    1.000
    C36      C        0.00920    0.61650    0.00520    1.000
    C37      C        0.13640    0.62760    0.06360    1.000
    H24      H        0.17710    0.63270    0.14820    1.000
    C38      C        0.20430    0.63140    0.99400    1.000
    H25      H        0.29100    0.63950    0.03370    1.000
    C39      C        0.93000    0.61480    0.07750    1.000
    C40      C        0.83340    0.58630    0.05270    1.000
    H26      H        0.81370    0.56780    0.98960    1.000
    C41      C        0.76750    0.58610    0.12400    1.000
    H27      H        0.70620    0.56630    0.11130    1.000
    C42      C        0.88170    0.64220    0.23270    1.000
    H28      H        0.89710    0.66160    0.29270    1.000
    C43      C        0.95250    0.64270    0.16770    1.000
    H29      H        0.01630    0.66210    0.18470    1.000
    C44      C        0.71640    0.61460    0.28350    1.000
    H30      H        0.35100    0.68010    0.66280    1.000
    C45      C        0.58320    0.61040    0.22230    1.000
    H31      H        0.53930    0.60730    0.13690    1.000
    C46      C        0.51680    0.61120    0.29500    1.000
    H32      H        0.42670    0.60820    0.25780    1.000
    C47      C        0.58440    0.61630    0.42170    1.000
    C48      C        0.71680    0.62030    0.47860    1.000
    H33      H        0.76100    0.62400    0.56380    1.000
    C49      C        0.78610    0.61890    0.40880    1.000
    H34      H        0.87650    0.62090    0.44640    1.000
    C50      C        0.51390    0.61950    0.50230    1.000
    C51      C        0.68160    0.68230    0.94090    1.000
    C52      C        0.78380    0.71450    0.97720    1.000
    C53      C        0.85430    0.71920    0.90970    1.000
    H35      H        0.84150    0.70190    0.84530    1.000
    C54      C        0.94340    0.75000    0.94000    1.000
    H36      H        0.98980    0.75350    0.89460    1.000
    C55      C        0.96450    0.77574    0.03650    1.000
    C56      C        0.89630    0.76970    0.10650    1.000
    H37      H        0.91250    0.78600    0.17420    1.000
    C57      C        0.80550    0.73970    0.07450    1.000
    H38      H        0.75810    0.73640    0.11910    1.000
    C58      C        0.06020    0.80906    0.06820    1.000
    C59      C        0.46500    0.57371    0.86680    1.000
    C60      C        0.48080    0.53532    0.93310    1.000
    C61      C        0.56520    0.50619    0.92910    1.000
    H39      H        0.60870    0.51040    0.88140    1.000
    C62      C        0.41490    0.52875    0.00490    1.000
    H40      H        0.35810    0.54790    0.00790    1.000
    C63      C        0.13450    0.57688    0.55150    1.000
    C64      C        0.06300    0.53710    0.52300    1.000
    C65      C        0.00270    0.52180    0.40420    1.000
    H41      H        0.00440    0.53620    0.33930    1.000
    C66      C        0.06010    0.51470    0.61950    1.000
    H42      H        0.10070    0.52440    0.70010    1.000
    N3       N        0.15110    0.62398    0.87370    1.000
    N4       N        0.79010    0.61419    0.21190    1.000
    O12      O        0.39320    0.61776    0.45140    1.000
    O13      O        0.58670    0.62250    0.61440    1.000
    O14      O        0.66960    0.66151    0.84910    1.000
    O15      O        0.61930    0.67762    0.00160    1.000
    O16      O        0.08680    0.82093    0.98430    1.000
    O17      O        0.10400    0.82267    0.17490    1.000
    O18      O        0.40630    0.60164    0.88970    1.000
    O19      O        0.51670    0.57616    0.79450    1.000
    O20      O        0.17370    0.58962    0.65800    1.000
    O21      O        0.14810    0.59381    0.46170    1.000
    O22      O        0.35480    0.65645    0.66670    1.000
    Zn4      Zn       0.25416    0.63947    0.76989    1.000
    Zn5      Zn       0.52365    0.63019    0.73806    1.000
    Zn6      Zn       0.24131    0.64582    0.48843    1.000
    C67      C        0.02680    0.88740    0.31830    1.000
    H43      H        0.98860    0.89300    0.23390    1.000
    C68      C        0.95190    0.89140    0.38050    1.000
    H44      H        0.86510    0.89920    0.33900    1.000
    C69      C        0.00920    0.88350    0.50520    1.000
    C70      C        0.13640    0.87240    0.56360    1.000
    H45      H        0.17710    0.86730    0.64820    1.000
    C71      C        0.20430    0.86860    0.49400    1.000
    H46      H        0.29100    0.86050    0.53370    1.000
    C72      C        0.93000    0.88520    0.57750    1.000
    C73      C        0.83340    0.91370    0.55270    1.000
    H47      H        0.81370    0.93220    0.48960    1.000
    C74      C        0.76750    0.91390    0.62400    1.000
    H48      H        0.70620    0.93370    0.61130    1.000
    C75      C        0.88170    0.85780    0.73270    1.000
    H49      H        0.89710    0.83840    0.79270    1.000
    C76      C        0.95250    0.85730    0.66770    1.000
    H50      H        0.01630    0.83790    0.68470    1.000
    C77      C        0.71640    0.88540    0.78350    1.000
    H51      H        0.35100    0.81990    0.16280    1.000
    C78      C        0.58320    0.88960    0.72230    1.000
    H52      H        0.53930    0.89270    0.63690    1.000
    C79      C        0.51680    0.88880    0.79500    1.000
    H53      H        0.42670    0.89180    0.75780    1.000
    C80      C        0.58440    0.88370    0.92170    1.000
    C81      C        0.71680    0.87970    0.97860    1.000
    H54      H        0.76100    0.87600    0.06380    1.000
    C82      C        0.78610    0.88110    0.90880    1.000
    H55      H        0.87650    0.87910    0.94640    1.000
    C83      C        0.51390    0.88050    0.00230    1.000
    C84      C        0.68160    0.81770    0.44090    1.000
    C85      C        0.78380    0.78550    0.47720    1.000
    C86      C        0.85430    0.78080    0.40970    1.000
    H56      H        0.84150    0.79810    0.34530    1.000
    C87      C        0.94340    0.75000    0.44000    1.000
    H57      H        0.98980    0.74650    0.39460    1.000
    C88      C        0.96450    0.72426    0.53650    1.000
    C89      C        0.89630    0.73030    0.60650    1.000
    H58      H        0.91250    0.71400    0.67420    1.000
    C90      C        0.80550    0.76030    0.57450    1.000
    H59      H        0.75810    0.76360    0.61910    1.000
    C91      C        0.06020    0.69094    0.56820    1.000
    C92      C        0.46500    0.92629    0.36680    1.000
    C93      C        0.48080    0.96468    0.43310    1.000
    C94      C        0.56520    0.99381    0.42910    1.000
    H60      H        0.60870    0.98960    0.38140    1.000
    C95      C        0.41490    0.97125    0.50490    1.000
    H61      H        0.35810    0.95210    0.50790    1.000
    C96      C        0.13450    0.92312    0.05150    1.000
    C97      C        0.06300    0.96290    0.02300    1.000
    C98      C        0.00270    0.97820    0.90420    1.000
    H62      H        0.00440    0.96380    0.83930    1.000
    C99      C        0.06010    0.98530    0.11950    1.000
    H63      H        0.10070    0.97560    0.20010    1.000
    N5       N        0.15110    0.87602    0.37370    1.000
    N6       N        0.79010    0.88581    0.71190    1.000
    O23      O        0.39320    0.88224    0.95140    1.000
    O24      O        0.58670    0.87750    0.11440    1.000
    O25      O        0.66960    0.83849    0.34910    1.000
    O26      O        0.61930    0.82238    0.50160    1.000
    O27      O        0.08680    0.67907    0.48430    1.000
    O28      O        0.10400    0.67733    0.67490    1.000
    O29      O        0.40630    0.89836    0.38970    1.000
    O30      O        0.51670    0.92384    0.29450    1.000
    O31      O        0.17370    0.91038    0.15800    1.000
    O32      O        0.14810    0.90619    0.96170    1.000
    O33      O        0.35480    0.84355    0.16670    1.000
    Zn7      Zn       0.25416    0.86053    0.26989    1.000
    Zn8      Zn       0.52365    0.86981    0.23806    1.000
    Zn9      Zn       0.24131    0.85418    0.98843    1.000
    C100     C        0.97320    0.38740    0.18170    1.000
    H64      H        0.01140    0.39300    0.26610    1.000
    C101     C        0.04810    0.39140    0.11950    1.000
    H65      H        0.13490    0.39920    0.16100    1.000
    C102     C        0.99080    0.38350    0.99480    1.000
    C103     C        0.86360    0.37240    0.93640    1.000
    H66      H        0.82290    0.36730    0.85180    1.000
    C104     C        0.79570    0.36860    0.00600    1.000
    H67      H        0.70900    0.36050    0.96630    1.000
    C105     C        0.07000    0.38520    0.92250    1.000
    C106     C        0.16660    0.41370    0.94730    1.000
    H68      H        0.18630    0.43220    0.01040    1.000
    C107     C        0.23250    0.41390    0.87600    1.000
    H69      H        0.29380    0.43370    0.88870    1.000
    C108     C        0.11830    0.35780    0.76730    1.000
    H70      H        0.10290    0.33840    0.70730    1.000
    C109     C        0.04750    0.35730    0.83230    1.000
    H71      H        0.98370    0.33790    0.81530    1.000
    C110     C        0.28360    0.38540    0.71650    1.000
    H72      H        0.64900    0.31990    0.33720    1.000
    C111     C        0.41680    0.38960    0.77770    1.000
    H73      H        0.46070    0.39270    0.86310    1.000
    C112     C        0.48320    0.38880    0.70500    1.000
    H74      H        0.57330    0.39180    0.74220    1.000
    C113     C        0.41560    0.38370    0.57830    1.000
    C114     C        0.28320    0.37970    0.52140    1.000
    H75      H        0.23900    0.37600    0.43620    1.000
    C115     C        0.21390    0.38110    0.59120    1.000
    H76      H        0.12350    0.37910    0.55360    1.000
    C116     C        0.48610    0.38050    0.49770    1.000
    C117     C        0.31840    0.31770    0.05910    1.000
    C118     C        0.21620    0.28550    0.02280    1.000
    C119     C        0.14570    0.28080    0.09030    1.000
    H77      H        0.15850    0.29810    0.15470    1.000
    C120     C        0.05660    0.25000    0.06000    1.000
    H78      H        0.01020    0.24650    0.10540    1.000
    C121     C        0.03550    0.22426    0.96350    1.000
    C122     C        0.10370    0.23030    0.89350    1.000
    H79      H        0.08750    0.21400    0.82580    1.000
    C123     C        0.19450    0.26030    0.92550    1.000
    H80      H        0.24190    0.26360    0.88090    1.000
    C124     C        0.93980    0.19094    0.93180    1.000
    C125     C        0.53500    0.42629    0.13320    1.000
    C126     C        0.51920    0.46468    0.06690    1.000
    C127     C        0.43480    0.49381    0.07090    1.000
    H81      H        0.39130    0.48960    0.11860    1.000
    C128     C        0.58510    0.47125    0.99510    1.000
    H82      H        0.64190    0.45210    0.99210    1.000
    C129     C        0.86550    0.42312    0.44850    1.000
    C130     C        0.93700    0.46290    0.47700    1.000
    C131     C        0.99730    0.47820    0.59580    1.000
    H83      H        0.99560    0.46380    0.66070    1.000
    C132     C        0.93990    0.48530    0.38050    1.000
    H84      H        0.89930    0.47560    0.29990    1.000
    N7       N        0.84890    0.37602    0.12630    1.000
    N8       N        0.20990    0.38581    0.78810    1.000
    O34      O        0.60680    0.38224    0.54860    1.000
    O35      O        0.41330    0.37750    0.38560    1.000
    O36      O        0.33040    0.33849    0.15090    1.000
    O37      O        0.38070    0.32238    0.99840    1.000
    O38      O        0.91320    0.17907    0.01570    1.000
    O39      O        0.89600    0.17733    0.82510    1.000
    O40      O        0.59370    0.39836    0.11030    1.000
    O41      O        0.48330    0.42384    0.20550    1.000
    O42      O        0.82630    0.41038    0.34200    1.000
    O43      O        0.85190    0.40619    0.53830    1.000
    O44      O        0.64520    0.34355    0.33330    1.000
    Zn10     Zn       0.74584    0.36053    0.23011    1.000
    Zn11     Zn       0.47635    0.36981    0.26194    1.000
    Zn12     Zn       0.75869    0.35418    0.51157    1.000
