# CIF file generated by openbabel 3.1.0, see https://openbabel.org
data_I
_chemical_name_common 'image0'
_cell_length_a 15.4115
_cell_length_b 19.185
_cell_length_c 25.471
_cell_angle_alpha 90
_cell_angle_beta 90
_cell_angle_gamma 90
_space_group_name_H-M_alt 'P 1'
_space_group_name_Hall 'P 1'
loop_
    _symmetry_equiv_pos_as_xyz
    x,y,z
loop_
    _atom_site_label
    _atom_site_type_symbol
    _atom_site_fract_x
    _atom_site_fract_y
    _atom_site_fract_z
    _atom_site_occupancy
    Zn1      Zn       0.93733    0.16212    0.23122    1.000
    Zn2      Zn       0.97166    0.03581    0.45095    1.000
    N1       N        0.92450    0.13090    0.30655    1.000
    N2       N        0.86500    0.16530    0.33750    1.000
    N3       N        0.92820    0.08480    0.38542    1.000
    N4       N        0.05050    0.21370    0.21981    1.000
    H1       H        0.02770    0.28880    0.72930    1.000
    N5       N        0.95530    0.91320    0.02700    1.000
    H2       H        0.00640    0.91120    0.04050    1.000
    H3       H        0.94300    0.88830    0.99990    1.000
    O1       O        0.98610    0.12080    0.49941    1.000
    O2       O        0.02360    0.06570    0.57236    1.000
    O3       O        0.60180    0.03990    0.06167    1.000
    O4       O        0.64240    0.98340    0.98978    1.000
    O5       O        0.83420    0.11490    0.18610    1.000
    O6       O        0.95770    0.07760    0.18040    1.000
    C1       C        0.02810    0.03360    0.31850    1.000
    H4       H        0.08410    0.05470    0.32290    1.000
    H5       H        0.01910    0.02290    0.28210    1.000
    H6       H        0.02520    0.99150    0.33880    1.000
    C2       C        0.96030    0.08240    0.33648    1.000
    C3       C        0.86910    0.13580    0.38382    1.000
    C4       C        0.81230    0.15720    0.42830    1.000
    H7       H        0.76250    0.18150    0.41490    1.000
    H8       H        0.84400    0.18740    0.45140    1.000
    H9       H        0.79370    0.11660    0.44720    1.000
    C5       C        0.00690    0.11870    0.54710    1.000
    C6       C        0.01000    0.18750    0.57600    1.000
    C7       C        0.01940    0.18800    0.62970    1.000
    H10      H        0.02470    0.14610    0.64780    1.000
    C8       C        0.88330    0.07960    0.16430    1.000
    C9       C        0.85610    0.03730    0.11710    1.000
    C10      C        0.91590    0.99510    0.09220    1.000
    H11      H        0.97260    0.99230    0.10450    1.000
    C11      C        0.89100    0.95780    0.04960    1.000
    C12      C        0.80680    0.96430    0.02980    1.000
    H12      H        0.79090    0.93880    0.00030    1.000
    C13      C        0.74770    0.00710    0.05290    1.000
    C14      C        0.77340    0.04250    0.09820    1.000
    H13      H        0.73340    0.07020    0.11590    1.000
    C15      C        0.65670    0.01080    0.03290    1.000
    C16      C        0.15940    0.12110    0.20490    1.000
    H14      H        0.11120    0.09050    0.21080    1.000
    H15      H        0.20300    0.11300    0.23120    1.000
    H16      H        0.18340    0.11230    0.17080    1.000
    C17      C        0.12960    0.19460    0.20790    1.000
    H17      H        0.93010    0.92770    0.03340    1.000
    Zn3      Zn       0.56267    0.83788    0.73122    1.000
    Zn4      Zn       0.52834    0.96419    0.95095    1.000
    N6       N        0.57550    0.86910    0.80655    1.000
    N7       N        0.63500    0.83470    0.83750    1.000
    N8       N        0.57180    0.91520    0.88542    1.000
    N9       N        0.44950    0.78630    0.71981    1.000
    H18      H        0.47230    0.71120    0.22930    1.000
    N10      N        0.54470    0.08680    0.52700    1.000
    H19      H        0.49360    0.08880    0.54050    1.000
    H20      H        0.55700    0.11170    0.49990    1.000
    O7       O        0.51390    0.87920    0.99941    1.000
    O8       O        0.47640    0.93430    0.07236    1.000
    O9       O        0.89820    0.96010    0.56167    1.000
    O10      O        0.85760    0.01660    0.48978    1.000
    O11      O        0.66580    0.88510    0.68610    1.000
    O12      O        0.54230    0.92240    0.68040    1.000
    C18      C        0.47190    0.96640    0.81850    1.000
    H21      H        0.41590    0.94530    0.82290    1.000
    H22      H        0.48090    0.97710    0.78210    1.000
    H23      H        0.47480    0.00850    0.83880    1.000
    C19      C        0.53970    0.91760    0.83648    1.000
    C20      C        0.63090    0.86420    0.88382    1.000
    C21      C        0.68770    0.84280    0.92830    1.000
    H24      H        0.73750    0.81850    0.91490    1.000
    H25      H        0.65600    0.81260    0.95140    1.000
    H26      H        0.70630    0.88340    0.94720    1.000
    C22      C        0.49310    0.88130    0.04710    1.000
    C23      C        0.49000    0.81250    0.07600    1.000
    C24      C        0.48060    0.81200    0.12970    1.000
    H27      H        0.47530    0.85390    0.14780    1.000
    C25      C        0.61670    0.92040    0.66430    1.000
    C26      C        0.64390    0.96270    0.61710    1.000
    C27      C        0.58410    0.00490    0.59220    1.000
    H28      H        0.52740    0.00770    0.60450    1.000
    C28      C        0.60900    0.04220    0.54960    1.000
    C29      C        0.69320    0.03570    0.52980    1.000
    H29      H        0.70910    0.06120    0.50030    1.000
    C30      C        0.75230    0.99290    0.55290    1.000
    C31      C        0.72660    0.95750    0.59820    1.000
    H30      H        0.76660    0.92980    0.61590    1.000
    C32      C        0.84330    0.98920    0.53290    1.000
    C33      C        0.34060    0.87890    0.70490    1.000
    H31      H        0.38880    0.90950    0.71080    1.000
    H32      H        0.29700    0.88700    0.73120    1.000
    H33      H        0.31660    0.88770    0.67080    1.000
    C34      C        0.37040    0.80540    0.70790    1.000
    H34      H        0.56990    0.07230    0.53340    1.000
    Zn5      Zn       0.06267    0.66212    0.76878    1.000
    Zn6      Zn       0.02834    0.53581    0.54905    1.000
    N11      N        0.07550    0.63090    0.69345    1.000
    N12      N        0.13500    0.66530    0.66250    1.000
    N13      N        0.07180    0.58480    0.61458    1.000
    N14      N        0.94950    0.71370    0.78019    1.000
    H35      H        0.97230    0.78880    0.27070    1.000
    N15      N        0.04470    0.41320    0.97300    1.000
    H36      H        0.99360    0.41120    0.95950    1.000
    H37      H        0.05700    0.38830    0.00010    1.000
    O13      O        0.01390    0.62080    0.50059    1.000
    O14      O        0.97640    0.56570    0.42764    1.000
    O15      O        0.39820    0.53990    0.93833    1.000
    O16      O        0.35760    0.48340    0.01022    1.000
    O17      O        0.16580    0.61490    0.81390    1.000
    O18      O        0.04230    0.57760    0.81960    1.000
    C35      C        0.97190    0.53360    0.68150    1.000
    H38      H        0.91590    0.55470    0.67710    1.000
    H39      H        0.98090    0.52290    0.71790    1.000
    H40      H        0.97480    0.49150    0.66120    1.000
    C36      C        0.03970    0.58240    0.66352    1.000
    C37      C        0.13090    0.63580    0.61618    1.000
    C38      C        0.18770    0.65720    0.57170    1.000
    H41      H        0.23750    0.68150    0.58510    1.000
    H42      H        0.15600    0.68740    0.54860    1.000
    H43      H        0.20630    0.61660    0.55280    1.000
    C39      C        0.99310    0.61870    0.45290    1.000
    C40      C        0.99000    0.68750    0.42400    1.000
    C41      C        0.98060    0.68800    0.37030    1.000
    H44      H        0.97530    0.64610    0.35220    1.000
    C42      C        0.11670    0.57960    0.83570    1.000
    C43      C        0.14390    0.53730    0.88290    1.000
    C44      C        0.08410    0.49510    0.90780    1.000
    H45      H        0.02740    0.49230    0.89550    1.000
    C45      C        0.10900    0.45780    0.95040    1.000
    C46      C        0.19320    0.46430    0.97020    1.000
    H46      H        0.20910    0.43880    0.99970    1.000
    C47      C        0.25230    0.50710    0.94710    1.000
    C48      C        0.22660    0.54250    0.90180    1.000
    H47      H        0.26660    0.57020    0.88410    1.000
    C49      C        0.34330    0.51080    0.96710    1.000
    C50      C        0.84060    0.62110    0.79510    1.000
    H48      H        0.88880    0.59050    0.78920    1.000
    H49      H        0.79700    0.61300    0.76880    1.000
    H50      H        0.81660    0.61230    0.82920    1.000
    C51      C        0.87040    0.69460    0.79210    1.000
    H51      H        0.06990    0.42770    0.96660    1.000
    Zn7      Zn       0.43733    0.33788    0.26878    1.000
    Zn8      Zn       0.47166    0.46419    0.04905    1.000
    N16      N        0.42450    0.36910    0.19345    1.000
    N17      N        0.36500    0.33470    0.16250    1.000
    N18      N        0.42820    0.41520    0.11458    1.000
    N19      N        0.55050    0.28630    0.28019    1.000
    H52      H        0.52770    0.21120    0.77070    1.000
    N20      N        0.45530    0.58680    0.47300    1.000
    H53      H        0.50640    0.58880    0.45950    1.000
    H54      H        0.44300    0.61170    0.50010    1.000
    O19      O        0.48610    0.37920    0.00059    1.000
    O20      O        0.52360    0.43430    0.92764    1.000
    O21      O        0.10180    0.46010    0.43833    1.000
    O22      O        0.14240    0.51660    0.51022    1.000
    O23      O        0.33420    0.38510    0.31390    1.000
    O24      O        0.45770    0.42240    0.31960    1.000
    C52      C        0.52810    0.46640    0.18150    1.000
    H55      H        0.58410    0.44530    0.17710    1.000
    H56      H        0.51910    0.47710    0.21790    1.000
    H57      H        0.52520    0.50850    0.16120    1.000
    C53      C        0.46030    0.41760    0.16352    1.000
    C54      C        0.36910    0.36420    0.11618    1.000
    C55      C        0.31230    0.34280    0.07170    1.000
    H58      H        0.26250    0.31850    0.08510    1.000
    H59      H        0.34400    0.31260    0.04860    1.000
    H60      H        0.29370    0.38340    0.05280    1.000
    C56      C        0.50690    0.38130    0.95290    1.000
    C57      C        0.51000    0.31250    0.92400    1.000
    C58      C        0.51940    0.31200    0.87030    1.000
    H61      H        0.52470    0.35390    0.85220    1.000
    C59      C        0.38330    0.42040    0.33570    1.000
    C60      C        0.35610    0.46270    0.38290    1.000
    C61      C        0.41590    0.50490    0.40780    1.000
    H62      H        0.47260    0.50770    0.39550    1.000
    C62      C        0.39100    0.54220    0.45040    1.000
    C63      C        0.30680    0.53570    0.47020    1.000
    H63      H        0.29090    0.56120    0.49970    1.000
    C64      C        0.24770    0.49290    0.44710    1.000
    C65      C        0.27340    0.45750    0.40180    1.000
    H64      H        0.23340    0.42980    0.38410    1.000
    C66      C        0.15670    0.48920    0.46710    1.000
    C67      C        0.65940    0.37890    0.29510    1.000
    H65      H        0.61120    0.40950    0.28920    1.000
    H66      H        0.70300    0.38700    0.26880    1.000
    H67      H        0.68340    0.38770    0.32920    1.000
    C68      C        0.62960    0.30540    0.29210    1.000
    H68      H        0.43010    0.57230    0.46660    1.000
    Zn9      Zn       0.06267    0.83788    0.76878    1.000
    Zn10     Zn       0.02834    0.96419    0.54905    1.000
    N21      N        0.07550    0.86910    0.69345    1.000
    N22      N        0.13500    0.83470    0.66250    1.000
    N23      N        0.07180    0.91520    0.61458    1.000
    N24      N        0.94950    0.78630    0.78019    1.000
    H69      H        0.97230    0.71120    0.27070    1.000
    N25      N        0.04470    0.08680    0.97300    1.000
    H70      H        0.99360    0.08880    0.95950    1.000
    H71      H        0.05700    0.11170    0.00010    1.000
    O25      O        0.01390    0.87920    0.50059    1.000
    O26      O        0.97640    0.93430    0.42764    1.000
    O27      O        0.39820    0.96010    0.93833    1.000
    O28      O        0.35760    0.01660    0.01022    1.000
    O29      O        0.16580    0.88510    0.81390    1.000
    O30      O        0.04230    0.92240    0.81960    1.000
    C69      C        0.97190    0.96640    0.68150    1.000
    H72      H        0.91590    0.94530    0.67710    1.000
    H73      H        0.98090    0.97710    0.71790    1.000
    H74      H        0.97480    0.00850    0.66120    1.000
    C70      C        0.03970    0.91760    0.66352    1.000
    C71      C        0.13090    0.86420    0.61618    1.000
    C72      C        0.18770    0.84280    0.57170    1.000
    H75      H        0.23750    0.81850    0.58510    1.000
    H76      H        0.15600    0.81260    0.54860    1.000
    H77      H        0.20630    0.88340    0.55280    1.000
    C73      C        0.99310    0.88130    0.45290    1.000
    C74      C        0.99000    0.81250    0.42400    1.000
    C75      C        0.98060    0.81200    0.37030    1.000
    H78      H        0.97530    0.85390    0.35220    1.000
    C76      C        0.11670    0.92040    0.83570    1.000
    C77      C        0.14390    0.96270    0.88290    1.000
    C78      C        0.08410    0.00490    0.90780    1.000
    H79      H        0.02740    0.00770    0.89550    1.000
    C79      C        0.10900    0.04220    0.95040    1.000
    C80      C        0.19320    0.03570    0.97020    1.000
    H80      H        0.20910    0.06120    0.99970    1.000
    C81      C        0.25230    0.99290    0.94710    1.000
    C82      C        0.22660    0.95750    0.90180    1.000
    H81      H        0.26660    0.92980    0.88410    1.000
    C83      C        0.34330    0.98920    0.96710    1.000
    C84      C        0.84060    0.87890    0.79510    1.000
    H82      H        0.88880    0.90950    0.78920    1.000
    H83      H        0.79700    0.88700    0.76880    1.000
    H84      H        0.81660    0.88770    0.82920    1.000
    C85      C        0.87040    0.80540    0.79210    1.000
    H85      H        0.06990    0.07230    0.96660    1.000
    Zn11     Zn       0.43733    0.16212    0.26878    1.000
    Zn12     Zn       0.47166    0.03581    0.04905    1.000
    N26      N        0.42450    0.13090    0.19345    1.000
    N27      N        0.36500    0.16530    0.16250    1.000
    N28      N        0.42820    0.08480    0.11458    1.000
    N29      N        0.55050    0.21370    0.28019    1.000
    H86      H        0.52770    0.28880    0.77070    1.000
    N30      N        0.45530    0.91320    0.47300    1.000
    H87      H        0.50640    0.91120    0.45950    1.000
    H88      H        0.44300    0.88830    0.50010    1.000
    O31      O        0.48610    0.12080    0.00059    1.000
    O32      O        0.52360    0.06570    0.92764    1.000
    O33      O        0.10180    0.03990    0.43833    1.000
    O34      O        0.14240    0.98340    0.51022    1.000
    O35      O        0.33420    0.11490    0.31390    1.000
    O36      O        0.45770    0.07760    0.31960    1.000
    C86      C        0.52810    0.03360    0.18150    1.000
    H89      H        0.58410    0.05470    0.17710    1.000
    H90      H        0.51910    0.02290    0.21790    1.000
    H91      H        0.52520    0.99150    0.16120    1.000
    C87      C        0.46030    0.08240    0.16352    1.000
    C88      C        0.36910    0.13580    0.11618    1.000
    C89      C        0.31230    0.15720    0.07170    1.000
    H92      H        0.26250    0.18150    0.08510    1.000
    H93      H        0.34400    0.18740    0.04860    1.000
    H94      H        0.29370    0.11660    0.05280    1.000
    C90      C        0.50690    0.11870    0.95290    1.000
    C91      C        0.51000    0.18750    0.92400    1.000
    C92      C        0.51940    0.18800    0.87030    1.000
    H95      H        0.52470    0.14610    0.85220    1.000
    C93      C        0.38330    0.07960    0.33570    1.000
    C94      C        0.35610    0.03730    0.38290    1.000
    C95      C        0.41590    0.99510    0.40780    1.000
    H96      H        0.47260    0.99230    0.39550    1.000
    C96      C        0.39100    0.95780    0.45040    1.000
    C97      C        0.30680    0.96430    0.47020    1.000
    H97      H        0.29090    0.93880    0.49970    1.000
    C98      C        0.24770    0.00710    0.44710    1.000
    C99      C        0.27340    0.04250    0.40180    1.000
    H98      H        0.23340    0.07020    0.38410    1.000
    C100     C        0.15670    0.01080    0.46710    1.000
    C101     C        0.65940    0.12110    0.29510    1.000
    H99      H        0.61120    0.09050    0.28920    1.000
    H100     H        0.70300    0.11300    0.26880    1.000
    H101     H        0.68340    0.11230    0.32920    1.000
    C102     C        0.62960    0.19460    0.29210    1.000
    H102     H        0.43010    0.92770    0.46660    1.000
    Zn13     Zn       0.93733    0.33788    0.23122    1.000
    Zn14     Zn       0.97166    0.46419    0.45095    1.000
    N31      N        0.92450    0.36910    0.30655    1.000
    N32      N        0.86500    0.33470    0.33750    1.000
    N33      N        0.92820    0.41520    0.38542    1.000
    N34      N        0.05050    0.28630    0.21981    1.000
    H103     H        0.02770    0.21120    0.72930    1.000
    N35      N        0.95530    0.58680    0.02700    1.000
    H104     H        0.00640    0.58880    0.04050    1.000
    H105     H        0.94300    0.61170    0.99990    1.000
    O37      O        0.98610    0.37920    0.49941    1.000
    O38      O        0.02360    0.43430    0.57236    1.000
    O39      O        0.60180    0.46010    0.06167    1.000
    O40      O        0.64240    0.51660    0.98978    1.000
    O41      O        0.83420    0.38510    0.18610    1.000
    O42      O        0.95770    0.42240    0.18040    1.000
    C103     C        0.02810    0.46640    0.31850    1.000
    H106     H        0.08410    0.44530    0.32290    1.000
    H107     H        0.01910    0.47710    0.28210    1.000
    H108     H        0.02520    0.50850    0.33880    1.000
    C104     C        0.96030    0.41760    0.33648    1.000
    C105     C        0.86910    0.36420    0.38382    1.000
    C106     C        0.81230    0.34280    0.42830    1.000
    H109     H        0.76250    0.31850    0.41490    1.000
    H110     H        0.84400    0.31260    0.45140    1.000
    H111     H        0.79370    0.38340    0.44720    1.000
    C107     C        0.00690    0.38130    0.54710    1.000
    C108     C        0.01000    0.31250    0.57600    1.000
    C109     C        0.01940    0.31200    0.62970    1.000
    H112     H        0.02470    0.35390    0.64780    1.000
    C110     C        0.88330    0.42040    0.16430    1.000
    C111     C        0.85610    0.46270    0.11710    1.000
    C112     C        0.91590    0.50490    0.09220    1.000
    H113     H        0.97260    0.50770    0.10450    1.000
    C113     C        0.89100    0.54220    0.04960    1.000
    C114     C        0.80680    0.53570    0.02980    1.000
    H114     H        0.79090    0.56120    0.00030    1.000
    C115     C        0.74770    0.49290    0.05290    1.000
    C116     C        0.77340    0.45750    0.09820    1.000
    H115     H        0.73340    0.42980    0.11590    1.000
    C117     C        0.65670    0.48920    0.03290    1.000
    C118     C        0.15940    0.37890    0.20490    1.000
    H116     H        0.11120    0.40950    0.21080    1.000
    H117     H        0.20300    0.38700    0.23120    1.000
    H118     H        0.18340    0.38770    0.17080    1.000
    C119     C        0.12960    0.30540    0.20790    1.000
    H119     H        0.93010    0.57230    0.03340    1.000
    Zn15     Zn       0.56267    0.66212    0.73122    1.000
    Zn16     Zn       0.52834    0.53581    0.95095    1.000
    N36      N        0.57550    0.63090    0.80655    1.000
    N37      N        0.63500    0.66530    0.83750    1.000
    N38      N        0.57180    0.58480    0.88542    1.000
    N39      N        0.44950    0.71370    0.71981    1.000
    H120     H        0.47230    0.78880    0.22930    1.000
    N40      N        0.54470    0.41320    0.52700    1.000
    H121     H        0.49360    0.41120    0.54050    1.000
    H122     H        0.55700    0.38830    0.49990    1.000
    O43      O        0.51390    0.62080    0.99941    1.000
    O44      O        0.47640    0.56570    0.07236    1.000
    O45      O        0.89820    0.53990    0.56167    1.000
    O46      O        0.85760    0.48340    0.48978    1.000
    O47      O        0.66580    0.61490    0.68610    1.000
    O48      O        0.54230    0.57760    0.68040    1.000
    C120     C        0.47190    0.53360    0.81850    1.000
    H123     H        0.41590    0.55470    0.82290    1.000
    H124     H        0.48090    0.52290    0.78210    1.000
    H125     H        0.47480    0.49150    0.83880    1.000
    C121     C        0.53970    0.58240    0.83648    1.000
    C122     C        0.63090    0.63580    0.88382    1.000
    C123     C        0.68770    0.65720    0.92830    1.000
    H126     H        0.73750    0.68150    0.91490    1.000
    H127     H        0.65600    0.68740    0.95140    1.000
    H128     H        0.70630    0.61660    0.94720    1.000
    C124     C        0.49310    0.61870    0.04710    1.000
    C125     C        0.49000    0.68750    0.07600    1.000
    C126     C        0.48060    0.68800    0.12970    1.000
    H129     H        0.47530    0.64610    0.14780    1.000
    C127     C        0.61670    0.57960    0.66430    1.000
    C128     C        0.64390    0.53730    0.61710    1.000
    C129     C        0.58410    0.49510    0.59220    1.000
    H130     H        0.52740    0.49230    0.60450    1.000
    C130     C        0.60900    0.45780    0.54960    1.000
    C131     C        0.69320    0.46430    0.52980    1.000
    H131     H        0.70910    0.43880    0.50030    1.000
    C132     C        0.75230    0.50710    0.55290    1.000
    C133     C        0.72660    0.54250    0.59820    1.000
    H132     H        0.76660    0.57020    0.61590    1.000
    C134     C        0.84330    0.51080    0.53290    1.000
    C135     C        0.34060    0.62110    0.70490    1.000
    H133     H        0.38880    0.59050    0.71080    1.000
    H134     H        0.29700    0.61300    0.73120    1.000
    H135     H        0.31660    0.61230    0.67080    1.000
    C136     C        0.37040    0.69460    0.70790    1.000
    H136     H        0.56990    0.42770    0.53340    1.000
    Zn17     Zn       0.80809    0.25000    0.30813    1.000
    N41      N        0.18210    0.25000    0.19970    1.000
    N42      N        0.02600    0.25000    0.71240    1.000
    O49      O        0.86480    0.25000    0.23850    1.000
    H137     H        0.82400    0.25000    0.21370    1.000
    C137     C        0.02100    0.25000    0.65690    1.000
    C138     C        0.00200    0.25000    0.54890    1.000
    H138     H        0.99130    0.25000    0.51300    1.000
    H139     H        0.02310    0.25000    0.69340    1.000
    Zn18     Zn       0.69191    0.75000    0.80813    1.000
    N43      N        0.31790    0.75000    0.69970    1.000
    N44      N        0.47400    0.75000    0.21240    1.000
    O50      O        0.63520    0.75000    0.73850    1.000
    H140     H        0.67600    0.75000    0.71370    1.000
    C139     C        0.47900    0.75000    0.15690    1.000
    C140     C        0.49800    0.75000    0.04890    1.000
    H141     H        0.50870    0.75000    0.01300    1.000
    H142     H        0.47690    0.75000    0.19340    1.000
    Zn19     Zn       0.19191    0.75000    0.69187    1.000
    N45      N        0.81790    0.75000    0.80030    1.000
    N46      N        0.97400    0.75000    0.28760    1.000
    O51      O        0.13520    0.75000    0.76150    1.000
    H143     H        0.17600    0.75000    0.78630    1.000
    C141     C        0.97900    0.75000    0.34310    1.000
    C142     C        0.99800    0.75000    0.45110    1.000
    H144     H        0.00870    0.75000    0.48700    1.000
    H145     H        0.97690    0.75000    0.30660    1.000
    Zn20     Zn       0.30809    0.25000    0.19187    1.000
    N47      N        0.68210    0.25000    0.30030    1.000
    N48      N        0.52600    0.25000    0.78760    1.000
    O52      O        0.36480    0.25000    0.26150    1.000
    H146     H        0.32400    0.25000    0.28630    1.000
    C143     C        0.52100    0.25000    0.84310    1.000
    C144     C        0.50200    0.25000    0.95110    1.000
    H147     H        0.49130    0.25000    0.98700    1.000
    H148     H        0.52310    0.25000    0.80660    1.000
