# CIF file generated by openbabel 3.1.0, see https://openbabel.org
data_I
_chemical_name_common 'image0'
_cell_length_a 10.749
_cell_length_b 18.058
_cell_length_c 18.058
_cell_angle_alpha 90
_cell_angle_beta 90
_cell_angle_gamma 90
_space_group_name_H-M_alt 'P 1'
_space_group_name_Hall 'P 1'
loop_
    _symmetry_equiv_pos_as_xyz
    x,y,z
loop_
    _atom_site_label
    _atom_site_type_symbol
    _atom_site_fract_x
    _atom_site_fract_y
    _atom_site_fract_z
    _atom_site_occupancy
    O1       O        0.16970    0.09930    0.32010    1.000
    O2       O        0.97150    0.07390    0.30760    1.000
    O3       O        0.28460    0.94670    0.32550    1.000
    O4       O        0.08700    0.92890    0.34700    1.000
    C1       C        0.02560    0.18530    0.37430    1.000
    C2       C        0.13090    0.20750    0.42670    1.000
    C3       C        0.89760    0.19430    0.40740    1.000
    C4       C        0.96160    0.24670    0.32410    1.000
    C5       C        0.95920    0.24100    0.25320    1.000
    C6       C        0.83180    0.22850    0.29980    1.000
    C7       C        0.05480    0.11510    0.33280    1.000
    C8       C        0.23020    0.87420    0.43440    1.000
    C9       C        0.12000    0.83450    0.46880    1.000
    C10      C        0.29010    0.92620    0.49730    1.000
    C11      C        0.42400    0.94750    0.48600    1.000
    C12      C        0.21510    0.99890    0.50720    1.000
    C13      C        0.33990    0.81970    0.41760    1.000
    C14      C        0.20030    0.91830    0.36470    1.000
    O5       O        0.66970    0.59930    0.82010    1.000
    O6       O        0.47150    0.57390    0.80760    1.000
    O7       O        0.78460    0.44670    0.82550    1.000
    O8       O        0.58700    0.42890    0.84700    1.000
    C15      C        0.52560    0.68530    0.87430    1.000
    C16      C        0.63090    0.70750    0.92670    1.000
    C17      C        0.39760    0.69430    0.90740    1.000
    C18      C        0.46160    0.74670    0.82410    1.000
    C19      C        0.45920    0.74100    0.75320    1.000
    C20      C        0.33180    0.72850    0.79980    1.000
    C21      C        0.55480    0.61510    0.83280    1.000
    C22      C        0.73020    0.37420    0.93440    1.000
    C23      C        0.62000    0.33450    0.96880    1.000
    C24      C        0.79010    0.42620    0.99730    1.000
    C25      C        0.92400    0.44750    0.98600    1.000
    C26      C        0.71510    0.49890    0.00720    1.000
    C27      C        0.83990    0.31970    0.91760    1.000
    C28      C        0.70030    0.41830    0.86470    1.000
    O9       O        0.33030    0.90070    0.82010    1.000
    O10      O        0.52850    0.92610    0.80760    1.000
    O11      O        0.21540    0.05330    0.82550    1.000
    O12      O        0.41300    0.07110    0.84700    1.000
    C29      C        0.47440    0.81470    0.87430    1.000
    C30      C        0.36910    0.79250    0.92670    1.000
    C31      C        0.60240    0.80570    0.90740    1.000
    C32      C        0.53840    0.75330    0.82410    1.000
    C33      C        0.54080    0.75900    0.75320    1.000
    C34      C        0.66820    0.77150    0.79980    1.000
    C35      C        0.44520    0.88490    0.83280    1.000
    C36      C        0.26980    0.12580    0.93440    1.000
    C37      C        0.38000    0.16550    0.96880    1.000
    C38      C        0.20990    0.07380    0.99730    1.000
    C39      C        0.07600    0.05250    0.98600    1.000
    C40      C        0.28490    0.00110    0.00720    1.000
    C41      C        0.16010    0.18030    0.91760    1.000
    C42      C        0.29970    0.08170    0.86470    1.000
    O13      O        0.83030    0.40070    0.32010    1.000
    O14      O        0.02850    0.42610    0.30760    1.000
    O15      O        0.71540    0.55330    0.32550    1.000
    O16      O        0.91300    0.57110    0.34700    1.000
    C43      C        0.97440    0.31470    0.37430    1.000
    C44      C        0.86910    0.29250    0.42670    1.000
    C45      C        0.10240    0.30570    0.40740    1.000
    C46      C        0.03840    0.25330    0.32410    1.000
    C47      C        0.04080    0.25900    0.25320    1.000
    C48      C        0.16820    0.27150    0.29980    1.000
    C49      C        0.94520    0.38490    0.33280    1.000
    C50      C        0.76980    0.62580    0.43440    1.000
    C51      C        0.88000    0.66550    0.46880    1.000
    C52      C        0.70990    0.57380    0.49730    1.000
    C53      C        0.57600    0.55250    0.48600    1.000
    C54      C        0.78490    0.50110    0.50720    1.000
    C55      C        0.66010    0.68030    0.41760    1.000
    C56      C        0.79970    0.58170    0.36470    1.000
    O17      O        0.83030    0.59930    0.17990    1.000
    O18      O        0.02850    0.57390    0.19240    1.000
    O19      O        0.71540    0.44670    0.17450    1.000
    O20      O        0.91300    0.42890    0.15300    1.000
    C57      C        0.97440    0.68530    0.12570    1.000
    C58      C        0.86910    0.70750    0.07330    1.000
    C59      C        0.10240    0.69430    0.09260    1.000
    C60      C        0.03840    0.74670    0.17590    1.000
    C61      C        0.04080    0.74100    0.24680    1.000
    C62      C        0.16820    0.72850    0.20020    1.000
    C63      C        0.94520    0.61510    0.16720    1.000
    C64      C        0.76980    0.37420    0.06560    1.000
    C65      C        0.88000    0.33450    0.03120    1.000
    C66      C        0.70990    0.42620    0.00270    1.000
    C67      C        0.57600    0.44750    0.01400    1.000
    C68      C        0.78490    0.49890    0.99280    1.000
    C69      C        0.66010    0.31970    0.08240    1.000
    C70      C        0.79970    0.41830    0.13530    1.000
    O21      O        0.33030    0.09930    0.67990    1.000
    O22      O        0.52850    0.07390    0.69240    1.000
    O23      O        0.21540    0.94670    0.67450    1.000
    O24      O        0.41300    0.92890    0.65300    1.000
    C71      C        0.47440    0.18530    0.62570    1.000
    C72      C        0.36910    0.20750    0.57330    1.000
    C73      C        0.60240    0.19430    0.59260    1.000
    C74      C        0.53840    0.24670    0.67590    1.000
    C75      C        0.54080    0.24100    0.74680    1.000
    C76      C        0.66820    0.22850    0.70020    1.000
    C77      C        0.44520    0.11510    0.66720    1.000
    C78      C        0.26980    0.87420    0.56560    1.000
    C79      C        0.38000    0.83450    0.53120    1.000
    C80      C        0.20990    0.92620    0.50270    1.000
    C81      C        0.07600    0.94750    0.51400    1.000
    C82      C        0.28490    0.99890    0.49280    1.000
    C83      C        0.16010    0.81970    0.58240    1.000
    C84      C        0.29970    0.91830    0.63530    1.000
    O25      O        0.66970    0.40070    0.67990    1.000
    O26      O        0.47150    0.42610    0.69240    1.000
    O27      O        0.78460    0.55330    0.67450    1.000
    O28      O        0.58700    0.57110    0.65300    1.000
    C85      C        0.52560    0.31470    0.62570    1.000
    C86      C        0.63090    0.29250    0.57330    1.000
    C87      C        0.39760    0.30570    0.59260    1.000
    C88      C        0.46160    0.25330    0.67590    1.000
    C89      C        0.45920    0.25900    0.74680    1.000
    C90      C        0.33180    0.27150    0.70020    1.000
    C91      C        0.55480    0.38490    0.66720    1.000
    C92      C        0.73020    0.62580    0.56560    1.000
    C93      C        0.62000    0.66550    0.53120    1.000
    C94      C        0.79010    0.57380    0.50270    1.000
    C95      C        0.92400    0.55250    0.51400    1.000
    C96      C        0.71510    0.50110    0.49280    1.000
    C97      C        0.83990    0.68030    0.58240    1.000
    C98      C        0.70030    0.58170    0.63530    1.000
    O29      O        0.16970    0.90070    0.17990    1.000
    O30      O        0.97150    0.92610    0.19240    1.000
    O31      O        0.28460    0.05330    0.17450    1.000
    O32      O        0.08700    0.07110    0.15300    1.000
    C99      C        0.02560    0.81470    0.12570    1.000
    C100     C        0.13090    0.79250    0.07330    1.000
    C101     C        0.89760    0.80570    0.09260    1.000
    C102     C        0.96160    0.75330    0.17590    1.000
    C103     C        0.95920    0.75900    0.24680    1.000
    C104     C        0.83180    0.77150    0.20020    1.000
    C105     C        0.05480    0.88490    0.16720    1.000
    C106     C        0.23020    0.12580    0.06560    1.000
    C107     C        0.12000    0.16550    0.03120    1.000
    C108     C        0.29010    0.07380    0.00270    1.000
    C109     C        0.42400    0.05250    0.01400    1.000
    C110     C        0.21510    0.00110    0.99280    1.000
    C111     C        0.33990    0.18030    0.08240    1.000
    C112     C        0.20030    0.08170    0.13530    1.000
    In1      In       0.12858    0.00000    0.25000    1.000
    In2      In       0.37142    0.00000    0.75000    1.000
    In3      In       0.87142    0.50000    0.25000    1.000
    In4      In       0.62858    0.50000    0.75000    1.000
