# CIF file generated by openbabel 3.1.0, see https://openbabel.org
data_I
_chemical_name_common 'image0'
_cell_length_a 19.3474
_cell_length_b 19.3474
_cell_length_c 3.5013
_cell_angle_alpha 90
_cell_angle_beta 90
_cell_angle_gamma 90
_space_group_name_H-M_alt 'P 1'
_space_group_name_Hall 'P 1'
loop_
    _symmetry_equiv_pos_as_xyz
    x,y,z
loop_
    _atom_site_label
    _atom_site_type_symbol
    _atom_site_fract_x
    _atom_site_fract_y
    _atom_site_fract_z
    _atom_site_occupancy
    Ag1      Ag       0.54448    0.37694    0.00510    1.000
    N1       N        0.75130    0.38160    0.45200    1.000
    N2       N        0.64140    0.39440    0.22500    1.000
    N3       N        0.67470    0.45850    0.20700    1.000
    C1       C        0.68860    0.35270    0.37200    1.000
    C2       C        0.73510    0.44570    0.36800    1.000
    H1       H        0.76570    0.48150    0.42190    1.000
    N4       N        0.67800    0.28300    0.41000    1.000
    H2       H        0.63980    0.26450    0.34030    1.000
    H3       H        0.71010    0.25720    0.50850    1.000
    N5       N        0.78000    0.50000    0.39900    1.000
    H4       H        0.82140    0.49260    0.47750    1.000
    H5       H        0.76660    0.54060    0.34040    1.000
    H6       H        0.67960    0.30620    0.41770    1.000
    Ag2      Ag       0.45552    0.62306    0.00510    1.000
    N6       N        0.24870    0.61840    0.45200    1.000
    N7       N        0.35860    0.60560    0.22500    1.000
    N8       N        0.32530    0.54150    0.20700    1.000
    C3       C        0.31140    0.64730    0.37200    1.000
    C4       C        0.26490    0.55430    0.36800    1.000
    H7       H        0.23430    0.51850    0.42190    1.000
    N9       N        0.32200    0.71700    0.41000    1.000
    H8       H        0.36020    0.73550    0.34030    1.000
    H9       H        0.28990    0.74280    0.50850    1.000
    N10      N        0.22000    0.50000    0.39900    1.000
    H10      H        0.17860    0.50740    0.47750    1.000
    H11      H        0.23340    0.45940    0.34040    1.000
    H12      H        0.32040    0.69380    0.41770    1.000
    Ag3      Ag       0.37694    0.45552    0.99490    1.000
    N11      N        0.38160    0.24870    0.54800    1.000
    N12      N        0.39440    0.35860    0.77500    1.000
    N13      N        0.45850    0.32530    0.79300    1.000
    C5       C        0.35270    0.31140    0.62800    1.000
    C6       C        0.44570    0.26490    0.63200    1.000
    H13      H        0.48150    0.23430    0.57810    1.000
    N14      N        0.28300    0.32200    0.59000    1.000
    H14      H        0.26450    0.36020    0.65970    1.000
    H15      H        0.25720    0.28990    0.49150    1.000
    N15      N        0.50000    0.22000    0.60100    1.000
    H16      H        0.49260    0.17860    0.52250    1.000
    H17      H        0.54060    0.23340    0.65960    1.000
    H18      H        0.30620    0.32040    0.58230    1.000
    Ag4      Ag       0.62306    0.54448    0.99490    1.000
    N16      N        0.61840    0.75130    0.54800    1.000
    N17      N        0.60560    0.64140    0.77500    1.000
    N18      N        0.54150    0.67470    0.79300    1.000
    C7       C        0.64730    0.68860    0.62800    1.000
    C8       C        0.55430    0.73510    0.63200    1.000
    H19      H        0.51850    0.76570    0.57810    1.000
    N19      N        0.71700    0.67800    0.59000    1.000
    H20      H        0.73550    0.63980    0.65970    1.000
    H21      H        0.74280    0.71010    0.49150    1.000
    N20      N        0.50000    0.78000    0.60100    1.000
    H22      H        0.50740    0.82140    0.52250    1.000
    H23      H        0.45940    0.76660    0.65960    1.000
    H24      H        0.69380    0.67960    0.58230    1.000
    Ag5      Ag       0.04448    0.12306    0.50510    1.000
    N21      N        0.25130    0.11840    0.95200    1.000
    N22      N        0.14140    0.10560    0.72500    1.000
    N23      N        0.17470    0.04150    0.70700    1.000
    C9       C        0.18860    0.14730    0.87200    1.000
    C10      C        0.23510    0.05430    0.86800    1.000
    H25      H        0.26570    0.01850    0.92190    1.000
    N24      N        0.17800    0.21700    0.91000    1.000
    H26      H        0.13980    0.23550    0.84030    1.000
    H27      H        0.21010    0.24280    0.00850    1.000
    N25      N        0.28000    0.00000    0.89900    1.000
    H28      H        0.32140    0.00740    0.97750    1.000
    H29      H        0.26660    0.95940    0.84040    1.000
    H30      H        0.17960    0.19380    0.91770    1.000
    Ag6      Ag       0.95552    0.87694    0.50510    1.000
    N26      N        0.74870    0.88160    0.95200    1.000
    N27      N        0.85860    0.89440    0.72500    1.000
    N28      N        0.82530    0.95850    0.70700    1.000
    C11      C        0.81140    0.85270    0.87200    1.000
    C12      C        0.76490    0.94570    0.86800    1.000
    H31      H        0.73430    0.98150    0.92190    1.000
    N29      N        0.82200    0.78300    0.91000    1.000
    H32      H        0.86020    0.76450    0.84030    1.000
    H33      H        0.78990    0.75720    0.00850    1.000
    N30      N        0.72000    0.00000    0.89900    1.000
    H34      H        0.67860    0.99260    0.97750    1.000
    H35      H        0.73340    0.04060    0.84040    1.000
    H36      H        0.82040    0.80620    0.91770    1.000
    Ag7      Ag       0.87694    0.04448    0.49490    1.000
    N31      N        0.88160    0.25130    0.04800    1.000
    N32      N        0.89440    0.14140    0.27500    1.000
    N33      N        0.95850    0.17470    0.29300    1.000
    C13      C        0.85270    0.18860    0.12800    1.000
    C14      C        0.94570    0.23510    0.13200    1.000
    H37      H        0.98150    0.26570    0.07810    1.000
    N34      N        0.78300    0.17800    0.09000    1.000
    H38      H        0.76450    0.13980    0.15970    1.000
    H39      H        0.75720    0.21010    0.99150    1.000
    N35      N        0.00000    0.28000    0.10100    1.000
    H40      H        0.99260    0.32140    0.02250    1.000
    H41      H        0.04060    0.26660    0.15960    1.000
    H42      H        0.80620    0.17960    0.08230    1.000
    Ag8      Ag       0.12306    0.95552    0.49490    1.000
    N36      N        0.11840    0.74870    0.04800    1.000
    N37      N        0.10560    0.85860    0.27500    1.000
    N38      N        0.04150    0.82530    0.29300    1.000
    C15      C        0.14730    0.81140    0.12800    1.000
    C16      C        0.05430    0.76490    0.13200    1.000
    H43      H        0.01850    0.73430    0.07810    1.000
    N39      N        0.21700    0.82200    0.09000    1.000
    H44      H        0.23550    0.86020    0.15970    1.000
    H45      H        0.24280    0.78990    0.99150    1.000
    N40      N        0.00000    0.72000    0.10100    1.000
    H46      H        0.00740    0.67860    0.02250    1.000
    H47      H        0.95940    0.73340    0.15960    1.000
    H48      H        0.19380    0.82040    0.08230    1.000
    Ag9      Ag       0.83553    0.33553    0.75000    1.000
    Ag10     Ag       0.16447    0.66447    0.75000    1.000
    Ag11     Ag       0.33553    0.16447    0.25000    1.000
    Ag12     Ag       0.66447    0.83553    0.25000    1.000
