# CIF file generated by openbabel 3.1.0, see https://openbabel.org
data_I
_chemical_name_common 'image0'
_cell_length_a 13.709
_cell_length_b 17.722
_cell_length_c 23.81
_cell_angle_alpha 70.746
_cell_angle_beta 77.493
_cell_angle_gamma 88.4
_space_group_name_H-M_alt 'P 1'
_space_group_name_Hall 'P 1'
loop_
    _symmetry_equiv_pos_as_xyz
    x,y,z
loop_
    _atom_site_label
    _atom_site_type_symbol
    _atom_site_fract_x
    _atom_site_fract_y
    _atom_site_fract_z
    _atom_site_occupancy
    Ni1      Ni       0.59279    0.84975    0.26776    1.000
    O1       O        0.99107    0.87673    0.02538    1.000
    O2       O        0.61450    0.96033    0.20333    1.000
    O3       O        0.44010    0.86885    0.26664    1.000
    O4       O        0.59300    0.79948    0.19992    1.000
    N1       N        0.15610    0.99316    0.00161    1.000
    O5       O        0.64510    0.30346    0.00830    1.000
    N2       N        0.56000    0.73634    0.33315    1.000
    O6       O        0.44830    0.88568    0.16836    1.000
    O7       O        0.97710    0.86205    0.93739    1.000
    O8       O        0.99670    0.49919    0.08977    1.000
    O9       O        0.78070    0.97453    0.17424    1.000
    O10      O        0.65360    0.66380    0.97703    1.000
    N3       N        0.57390    0.90253    0.33555    1.000
    O11      O        0.14790    0.15049    0.21140    1.000
    C1       C        0.22300    0.05170    0.96901    1.000
    H1       H        0.20090    0.09800    0.94370    1.000
    C2       C        0.99300    0.74563    0.01930    1.000
    O12      O        0.73620    0.74330    0.20140    1.000
    C3       C        0.18950    0.92680    0.03620    1.000
    H2       H        0.14420    0.88390    0.05900    1.000
    C4       C        0.98610    0.83522    0.99352    1.000
    C5       C        0.35980    0.98190    0.00585    1.000
    C6       C        0.99800    0.69730    0.98363    1.000
    H3       H        0.99760    0.72050    0.94250    1.000
    C7       C        0.68110    0.07960    0.12703    1.000
    C8       C        0.66310    0.23010    0.04670    1.000
    C9       C        0.69500    0.99910    0.17093    1.000
    C10      C        0.99590    0.71070    0.08111    1.000
    H4       H        0.99590    0.74230    0.10550    1.000
    C11      C        0.41280    0.90280    0.21906    1.000
    O13      O        0.70480    0.22590    0.27632    1.000
    C12      C        0.00050    0.58100    0.06882    1.000
    C13      C        0.60770    0.71410    0.37810    1.000
    H5       H        0.65950    0.74710    0.37790    1.000
    C14      C        0.65470    0.73680    0.12580    1.000
    C15      C        0.76520    0.13090    0.09458    1.000
    H6       H        0.82880    0.11440    0.09940    1.000
    C16      C        0.46400    0.97190    0.01104    1.000
    H7       H        0.48100    0.92080    0.03200    1.000
    C17      C        0.58890    0.10450    0.11853    1.000
    H8       H        0.53280    0.07070    0.14000    1.000
    C18      C        0.75340    0.20620    0.05530    1.000
    H9       H        0.80920    0.24060    0.03450    1.000
    C19      C        0.32210    0.04960    0.96964    1.000
    H10      H        0.36470    0.09370    0.94570    1.000
    C20      C        0.57740    0.18020    0.07790    1.000
    H11      H        0.51450    0.19690    0.07190    1.000
    C21      C        0.99890    0.62760    0.10519    1.000
    H12      H        0.99980    0.60350    0.14620    1.000
    C22      C        0.04360    0.32230    0.15830    1.000
    C23      C        0.61020    0.55990    0.94290    1.000
    C24      C        0.56630    0.73020    0.11015    1.000
    H13      H        0.50820    0.74330    0.13280    1.000
    C25      C        0.66210    0.76230    0.17840    1.000
    C26      C        0.72970    0.35810    0.97450    1.000
    H14      H        0.77310    0.33700    0.94590    1.000
    H15      H        0.76800    0.36640    0.00200    1.000
    C27      C        0.28800    0.91870    0.03994    1.000
    H16      H        0.30760    0.87130    0.06510    1.000
    C28      C        0.98460    0.45900    0.15390    1.000
    H17      H        0.92870    0.47970    0.17630    1.000
    H18      H        0.04460    0.46710    0.16700    1.000
    C29      C        0.96520    0.37050    0.16532    1.000
    C30      C        0.21300    0.09050    0.20800    1.000
    C31      C        0.57180    0.61470    0.97880    1.000
    H19      H        0.52110    0.64780    0.96130    1.000
    H20      H        0.54190    0.58340    0.02070    1.000
    C32      C        0.00350    0.61580    0.00770    1.000
    H21      H        0.00930    0.58440    0.98270    1.000
    C33      C        0.64980    0.68860    0.02530    1.000
    C34      C        0.74220    0.22440    0.21570    1.000
    H22      H        0.70310    0.25740    0.18810    1.000
    H23      H        0.73950    0.17020    0.21480    1.000
    C35      C        0.68830    0.43600    0.94100    1.000
    C36      C        0.34230    0.96730    0.21423    1.000
    C37      C        0.59930    0.57470    0.88470    1.000
    C38      C        0.10950    0.18840    0.15690    1.000
    H24      H        0.08540    0.14800    0.14330    1.000
    H25      H        0.16220    0.22110    0.12440    1.000
    C39      C        0.24040    0.05300    0.26270    1.000
    H26      H        0.21510    0.06820    0.29670    1.000
    C40      C        0.62620    0.52060    0.85400    1.000
    C41      C        0.02480    0.24010    0.17221    1.000
    C42      C        0.84930    0.25730    0.19760    1.000
    C43      C        0.30770    0.99090    0.26558    1.000
    H27      H        0.32910    0.96570    0.30140    1.000
    C44      C        0.49050    0.68640    0.33270    1.000
    H28      H        0.45980    0.70060    0.29970    1.000
    C45      C        0.65810    0.49010    0.97190    1.000
    C46      C        0.49360    0.88520    0.38140    1.000
    H29      H        0.44530    0.84920    0.38170    1.000
    C47      C        0.58160    0.64120    0.42670    1.000
    H30      H        0.61280    0.62890    0.45930    1.000
    C48      C        0.51320    0.59000    0.42640    1.000
    C49      C        0.55230    0.96760    0.42900    1.000
    C50      C        0.67220    0.44950    0.88290    1.000
    C51      C        0.24650    0.06840    0.15790    1.000
    H31      H        0.22560    0.09440    0.12200    1.000
    C52      C        0.55460    0.65380    0.85180    1.000
    H32      H        0.56260    0.69280    0.87070    1.000
    H33      H        0.48480    0.64450    0.85470    1.000
    H34      H        0.58880    0.67320    0.80970    1.000
    C53      C        0.48200    0.51440    0.47550    1.000
    H35      H        0.43160    0.48370    0.47160    1.000
    C54      C        0.74050    0.72400    0.08940    1.000
    H36      H        0.80180    0.73280    0.09750    1.000
    C55      C        0.77920    0.39410    0.18480    1.000
    H37      H        0.77800    0.41550    0.21710    1.000
    H38      H        0.71790    0.36380    0.19270    1.000
    H39      H        0.78650    0.43720    0.14680    1.000
    C56      C        0.31250    0.00610    0.16060    1.000
    H40      H        0.33610    0.99100    0.12630    1.000
    C57      C        0.92790    0.20760    0.19505    1.000
    C58      C        0.55910    0.70420    0.06040    1.000
    H41      H        0.49770    0.69780    0.05150    1.000
    C59      C        0.86780    0.33940    0.18140    1.000
    C60      C        0.73860    0.69800    0.04030    1.000
    H42      H        0.79810    0.68710    0.01760    1.000
    C61      C        0.47680    0.91580    0.42730    1.000
    H43      H        0.41760    0.90330    0.45700    1.000
    C62      C        0.67710    0.47780    0.03370    1.000
    H44      H        0.71540    0.52300    0.03250    1.000
    H45      H        0.71350    0.43020    0.04590    1.000
    H46      H        0.61440    0.47210    0.06250    1.000
    C63      C        0.64450    0.95160    0.33780    1.000
    H47      H        0.70290    0.96330    0.30750    1.000
    C64      C        0.46100    0.61350    0.37900    1.000
    H48      H        0.40870    0.58150    0.37860    1.000
    C65      C        0.54290    0.17100    0.27740    1.000
    H49      H        0.56270    0.16920    0.23790    1.000
    C66      C        0.15170    0.35570    0.13880    1.000
    H50      H        0.15490    0.40990    0.11170    1.000
    H51      H        0.19270    0.32370    0.11810    1.000
    H52      H        0.17560    0.35430    0.17410    1.000
    C67      C        0.90970    0.11730    0.21590    1.000
    H53      H        0.92020    0.10000    0.18100    1.000
    H54      H        0.84210    0.10320    0.23890    1.000
    H55      H        0.95520    0.09180    0.24110    1.000
    C68      C        0.57660    0.21140    0.35910    1.000
    H56      H        0.61980    0.23500    0.37440    1.000
    C69      C        0.63410    0.98580    0.38380    1.000
    H57      H        0.68380    0.02100    0.38290    1.000
    C70      C        0.70360    0.38680    0.85260    1.000
    H58      H        0.77520    0.38610    0.84290    1.000
    H59      H        0.67890    0.39940    0.81600    1.000
    H60      H        0.67640    0.33510    0.88000    1.000
    C71      C        0.45070    0.14360    0.31130    1.000
    H61      H        0.40960    0.11700    0.29680    1.000
    C72      C        0.54190    0.00450    0.47740    1.000
    H62      H        0.59570    0.03560    0.47700    1.000
    C73      C        0.60670    0.20150    0.30230    1.000
    C74      C        0.47720    0.18420    0.39310    1.000
    H63      H        0.45590    0.18720    0.43210    1.000
    C75      C        0.41510    0.15460    0.36870    1.000
    O14      O        0.26770    0.06530    0.39350    1.000
    H64      H        0.22700    0.03760    0.42340    1.000
    O15      O        0.29440    0.13650    0.45850    1.000
    C76      C        0.32160    0.11280    0.41010    1.000
    O16      O        0.52390    0.49640    0.79660    1.000
    C77      C        0.61860    0.53410    0.79190    1.000
    H65      H        0.67320    0.51030    0.77120    1.000
    H66      H        0.62020    0.59090    0.76960    1.000
    C78      C        0.40040    0.48430    0.74590    1.000
    H67      H        0.36760    0.44580    0.78190    1.000
    C79      C        0.35590    0.50960    0.69600    1.000
    H68      H        0.29340    0.48800    0.69850    1.000
    C80      C        0.40490    0.56720    0.64230    1.000
    C81      C        0.49830    0.59940    0.63860    1.000
    H69      H        0.53110    0.63790    0.60260    1.000
    C82      C        0.54280    0.57410    0.68850    1.000
    H70      H        0.60530    0.59570    0.68590    1.000
    C83      C        0.49380    0.51650    0.74220    1.000
    O17      O        0.28420    0.55830    0.59230    1.000
    O18      O        0.41760    0.67300    0.54220    1.000
    H71      H        0.42260    0.70860    0.55640    1.000
    C84      C        0.35850    0.60810    0.58720    1.000
    Ni2      Ni       0.40721    0.15025    0.73224    1.000
    O19      O        0.00893    0.12327    0.97462    1.000
    O20      O        0.38550    0.03967    0.79667    1.000
    O21      O        0.55990    0.13115    0.73336    1.000
    O22      O        0.40700    0.20052    0.80008    1.000
    N4       N        0.84390    0.00684    0.99839    1.000
    O23      O        0.35490    0.69654    0.99170    1.000
    N5       N        0.44000    0.26366    0.66685    1.000
    O24      O        0.55170    0.11432    0.83164    1.000
    O25      O        0.02290    0.13795    0.06261    1.000
    O26      O        0.00330    0.50081    0.91023    1.000
    O27      O        0.21930    0.02547    0.82576    1.000
    O28      O        0.34640    0.33620    0.02297    1.000
    N6       N        0.42610    0.09747    0.66445    1.000
    O29      O        0.85210    0.84951    0.78860    1.000
    C85      C        0.77700    0.94830    0.03099    1.000
    H72      H        0.79910    0.90200    0.05630    1.000
    C86      C        0.00700    0.25437    0.98070    1.000
    O30      O        0.26380    0.25670    0.79860    1.000
    C87      C        0.81050    0.07320    0.96380    1.000
    H73      H        0.85580    0.11610    0.94100    1.000
    C88      C        0.01390    0.16478    0.00648    1.000
    C89      C        0.64020    0.01810    0.99415    1.000
    C90      C        0.00200    0.30270    0.01637    1.000
    H74      H        0.00240    0.27950    0.05750    1.000
    C91      C        0.31890    0.92040    0.87297    1.000
    C92      C        0.33690    0.76990    0.95330    1.000
    C93      C        0.30500    0.00090    0.82907    1.000
    C94      C        0.00410    0.28930    0.91889    1.000
    H75      H        0.00410    0.25770    0.89450    1.000
    C95      C        0.58720    0.09720    0.78094    1.000
    O31      O        0.29520    0.77410    0.72368    1.000
    C96      C        0.99950    0.41900    0.93118    1.000
    C97      C        0.39230    0.28590    0.62190    1.000
    H76      H        0.34050    0.25290    0.62210    1.000
    C98      C        0.34530    0.26320    0.87420    1.000
    C99      C        0.23480    0.86910    0.90542    1.000
    H77      H        0.17120    0.88560    0.90060    1.000
    C100     C        0.53600    0.02810    0.98896    1.000
    H78      H        0.51900    0.07920    0.96800    1.000
    C101     C        0.41110    0.89550    0.88147    1.000
    H79      H        0.46720    0.92930    0.86000    1.000
    C102     C        0.24660    0.79380    0.94470    1.000
    H80      H        0.19080    0.75940    0.96550    1.000
    C103     C        0.67790    0.95040    0.03036    1.000
    H81      H        0.63530    0.90630    0.05430    1.000
    C104     C        0.42260    0.81980    0.92210    1.000
    H82      H        0.48550    0.80310    0.92810    1.000
    C105     C        0.00110    0.37240    0.89481    1.000
    H83      H        0.00020    0.39650    0.85380    1.000
    C106     C        0.95640    0.67770    0.84170    1.000
    C107     C        0.38980    0.44010    0.05710    1.000
    C108     C        0.43370    0.26980    0.88985    1.000
    H84      H        0.49180    0.25670    0.86720    1.000
    C109     C        0.33790    0.23770    0.82160    1.000
    C110     C        0.27030    0.64190    0.02550    1.000
    H85      H        0.22690    0.66300    0.05410    1.000
    H86      H        0.23200    0.63360    0.99800    1.000
    C111     C        0.71200    0.08130    0.96006    1.000
    H87      H        0.69240    0.12870    0.93490    1.000
    C112     C        0.01540    0.54100    0.84610    1.000
    H88      H        0.07130    0.52030    0.82370    1.000
    H89      H        0.95540    0.53290    0.83300    1.000
    C113     C        0.03480    0.62950    0.83468    1.000
    C114     C        0.78700    0.90950    0.79200    1.000
    C115     C        0.42820    0.38530    0.02120    1.000
    H90      H        0.47890    0.35220    0.03870    1.000
    H91      H        0.45810    0.41660    0.97930    1.000
    C116     C        0.99650    0.38420    0.99230    1.000
    H92      H        0.99070    0.41560    0.01730    1.000
    C117     C        0.35020    0.31140    0.97470    1.000
    C118     C        0.25780    0.77560    0.78430    1.000
    H93      H        0.29690    0.74260    0.81190    1.000
    H94      H        0.26050    0.82980    0.78520    1.000
    C119     C        0.31170    0.56400    0.05900    1.000
    C120     C        0.65770    0.03270    0.78577    1.000
    C121     C        0.40070    0.42530    0.11530    1.000
    C122     C        0.89050    0.81160    0.84310    1.000
    H95      H        0.91460    0.85200    0.85670    1.000
    H96      H        0.83780    0.77890    0.87560    1.000
    C123     C        0.75960    0.94700    0.73730    1.000
    H97      H        0.78490    0.93180    0.70330    1.000
    C124     C        0.37380    0.47940    0.14600    1.000
    C125     C        0.97520    0.75990    0.82779    1.000
    C126     C        0.15070    0.74270    0.80240    1.000
    C127     C        0.69230    0.00910    0.73442    1.000
    H98      H        0.67090    0.03430    0.69860    1.000
    C128     C        0.50950    0.31360    0.66730    1.000
    H99      H        0.54020    0.29940    0.70030    1.000
    C129     C        0.34190    0.50990    0.02810    1.000
    C130     C        0.50640    0.11480    0.61860    1.000
    H100     H        0.55470    0.15080    0.61830    1.000
    C131     C        0.41840    0.35880    0.57330    1.000
    H101     H        0.38720    0.37110    0.54070    1.000
    C132     C        0.48680    0.41000    0.57360    1.000
    C133     C        0.44770    0.03240    0.57100    1.000
    C134     C        0.32780    0.55050    0.11710    1.000
    C135     C        0.75350    0.93160    0.84210    1.000
    H102     H        0.77440    0.90560    0.87800    1.000
    C136     C        0.44540    0.34620    0.14820    1.000
    H103     H        0.43740    0.30720    0.12930    1.000
    H104     H        0.51520    0.35550    0.14530    1.000
    H105     H        0.41120    0.32680    0.19030    1.000
    C137     C        0.51800    0.48560    0.52450    1.000
    H106     H        0.56840    0.51630    0.52840    1.000
    C138     C        0.25950    0.27600    0.91060    1.000
    H107     H        0.19820    0.26720    0.90250    1.000
    C139     C        0.22080    0.60590    0.81520    1.000
    H108     H        0.22200    0.58450    0.78290    1.000
    H109     H        0.28210    0.63620    0.80730    1.000
    H110     H        0.21350    0.56280    0.85320    1.000
    C140     C        0.68750    0.99390    0.83940    1.000
    H111     H        0.66390    0.00900    0.87370    1.000
    C141     C        0.07210    0.79240    0.80495    1.000
    C142     C        0.44090    0.29580    0.93960    1.000
    H112     H        0.50230    0.30220    0.94850    1.000
    C143     C        0.13220    0.66060    0.81860    1.000
    C144     C        0.26140    0.30200    0.95970    1.000
    H113     H        0.20190    0.31290    0.98240    1.000
    C145     C        0.52320    0.08420    0.57270    1.000
    H114     H        0.58240    0.09670    0.54300    1.000
    C146     C        0.32290    0.52220    0.96630    1.000
    H115     H        0.28460    0.47700    0.96750    1.000
    H116     H        0.28650    0.56980    0.95410    1.000
    H117     H        0.38560    0.52790    0.93750    1.000
    C147     C        0.35550    0.04840    0.66220    1.000
    H118     H        0.29710    0.03670    0.69250    1.000
    C148     C        0.53900    0.38650    0.62100    1.000
    H119     H        0.59130    0.41850    0.62140    1.000
    C149     C        0.45710    0.82900    0.72260    1.000
    H120     H        0.43730    0.83080    0.76210    1.000
    C150     C        0.84830    0.64430    0.86120    1.000
    H121     H        0.84510    0.59010    0.88830    1.000
    H122     H        0.80730    0.67630    0.88190    1.000
    H123     H        0.82440    0.64570    0.82590    1.000
    C151     C        0.09030    0.88270    0.78410    1.000
    H124     H        0.07980    0.90000    0.81900    1.000
    H125     H        0.15790    0.89680    0.76110    1.000
    H126     H        0.04480    0.90820    0.75890    1.000
    C152     C        0.42340    0.78860    0.64090    1.000
    H127     H        0.38020    0.76500    0.62560    1.000
    C153     C        0.36590    0.01420    0.61620    1.000
    H128     H        0.31620    0.97900    0.61710    1.000
    C154     C        0.29640    0.61320    0.14740    1.000
    H129     H        0.22480    0.61390    0.15710    1.000
    H130     H        0.32110    0.60060    0.18400    1.000
    H131     H        0.32360    0.66490    0.12000    1.000
    C155     C        0.54930    0.85640    0.68870    1.000
    H132     H        0.59040    0.88300    0.70320    1.000
    C156     C        0.45810    0.99550    0.52260    1.000
    H133     H        0.40430    0.96440    0.52300    1.000
    C157     C        0.39330    0.79850    0.69770    1.000
    C158     C        0.52280    0.81580    0.60690    1.000
    H134     H        0.54410    0.81280    0.56790    1.000
    C159     C        0.58490    0.84540    0.63130    1.000
    O32      O        0.73230    0.93470    0.60650    1.000
    H135     H        0.77300    0.96240    0.57660    1.000
    O33      O        0.70560    0.86350    0.54150    1.000
    C160     C        0.67840    0.88720    0.58990    1.000
    O34      O        0.47610    0.50360    0.20340    1.000
    C161     C        0.38140    0.46590    0.20810    1.000
    H136     H        0.32680    0.48970    0.22880    1.000
    H137     H        0.37980    0.40910    0.23040    1.000
    C162     C        0.59960    0.51570    0.25410    1.000
    H138     H        0.63240    0.55420    0.21810    1.000
    C163     C        0.64410    0.49040    0.30400    1.000
    H139     H        0.70660    0.51200    0.30150    1.000
    C164     C        0.59510    0.43280    0.35770    1.000
    C165     C        0.50170    0.40060    0.36140    1.000
    H140     H        0.46890    0.36210    0.39740    1.000
    C166     C        0.45720    0.42590    0.31150    1.000
    H141     H        0.39470    0.40430    0.31410    1.000
    C167     C        0.50620    0.48350    0.25780    1.000
    O35      O        0.71580    0.44170    0.40770    1.000
    O36      O        0.58240    0.32700    0.45780    1.000
    H142     H        0.57740    0.29140    0.44360    1.000
    C168     C        0.64150    0.39190    0.41280    1.000
    Ni3      Ni       0.00000    0.00000    0.00000    1.000
