# CIF file generated by openbabel 3.1.0, see https://openbabel.org
data_I
_chemical_name_common 'image0'
_cell_length_a 20.0407
_cell_length_b 10.0674
_cell_length_c 18.9273
_cell_angle_alpha 90
_cell_angle_beta 101.3
_cell_angle_gamma 90
_space_group_name_H-M_alt 'P 1'
_space_group_name_Hall 'P 1'
loop_
    _symmetry_equiv_pos_as_xyz
    x,y,z
loop_
    _atom_site_label
    _atom_site_type_symbol
    _atom_site_fract_x
    _atom_site_fract_y
    _atom_site_fract_z
    _atom_site_occupancy
    Cd1      Cd       0.90519    0.94938    0.97380    1.000
    O1       O        0.79174    0.89030    0.92129    1.000
    O2       O        0.85008    0.00020    0.85739    1.000
    O3       O        0.00426    0.91850    0.93373    1.000
    O4       O        0.89749    0.15930    0.00833    1.000
    O5       O        0.93494    0.77600    0.04125    1.000
    C1       C        0.79475    0.95160    0.86492    1.000
    O6       O        0.65307    0.86190    0.99228    1.000
    C2       C        0.73356    0.96880    0.80664    1.000
    C3       C        0.73434    0.05720    0.75098    1.000
    C4       C        0.67450    0.89990    0.80790    1.000
    H1       H        0.77390    0.10420    0.74920    1.000
    C5       C        0.67681    0.07710    0.69748    1.000
    C6       C        0.61710    0.91940    0.75520    1.000
    H2       H        0.67320    0.83940    0.84480    1.000
    H3       H        0.67850    0.13600    0.66010    1.000
    C7       C        0.61704    0.00960    0.69962    1.000
    H4       H        0.57780    0.87140    0.75690    1.000
    C8       C        0.55406    0.03270    0.64522    1.000
    C9       C        0.53470    0.16160    0.62281    1.000
    C10      C        0.51208    0.92790    0.61614    1.000
    H5       H        0.56270    0.23260    0.64060    1.000
    C11      C        0.47410    0.18530    0.57420    1.000
    C12      C        0.45126    0.95150    0.56869    1.000
    H6       H        0.52510    0.84110    0.62880    1.000
    C13      C        0.43208    0.08020    0.54811    1.000
    C14      C        0.45459    0.32350    0.54794    1.000
    C15      C        0.40690    0.83680    0.53648    1.000
    H7       H        0.39090    0.09580    0.51680    1.000
    Cd2      Cd       0.40519    0.44938    0.97380    1.000
    O7       O        0.29174    0.39030    0.92129    1.000
    O8       O        0.35008    0.50020    0.85739    1.000
    O9       O        0.50426    0.41850    0.93373    1.000
    O10      O        0.39749    0.65930    0.00833    1.000
    O11      O        0.43494    0.27600    0.04125    1.000
    C16      C        0.29475    0.45160    0.86492    1.000
    O12      O        0.15307    0.36190    0.99228    1.000
    C17      C        0.23356    0.46880    0.80664    1.000
    C18      C        0.23434    0.55720    0.75098    1.000
    C19      C        0.17450    0.39990    0.80790    1.000
    H8       H        0.27390    0.60420    0.74920    1.000
    C20      C        0.17681    0.57710    0.69748    1.000
    C21      C        0.11710    0.41940    0.75520    1.000
    H9       H        0.17320    0.33940    0.84480    1.000
    H10      H        0.17850    0.63600    0.66010    1.000
    C22      C        0.11704    0.50960    0.69962    1.000
    H11      H        0.07780    0.37140    0.75690    1.000
    C23      C        0.05406    0.53270    0.64522    1.000
    C24      C        0.03470    0.66160    0.62281    1.000
    C25      C        0.01208    0.42790    0.61614    1.000
    H12      H        0.06270    0.73260    0.64060    1.000
    C26      C        0.97410    0.68530    0.57420    1.000
    C27      C        0.95126    0.45150    0.56869    1.000
    H13      H        0.02510    0.34110    0.62880    1.000
    C28      C        0.93208    0.58020    0.54811    1.000
    C29      C        0.95459    0.82350    0.54794    1.000
    C30      C        0.90690    0.33680    0.53648    1.000
    H14      H        0.89090    0.59580    0.51680    1.000
    Cd3      Cd       0.09481    0.94938    0.52620    1.000
    O13      O        0.20826    0.89030    0.57871    1.000
    O14      O        0.14992    0.00020    0.64261    1.000
    O15      O        0.99574    0.91850    0.56627    1.000
    O16      O        0.10251    0.15930    0.49167    1.000
    O17      O        0.06506    0.77600    0.45875    1.000
    C31      C        0.20525    0.95160    0.63508    1.000
    O18      O        0.34693    0.86190    0.50772    1.000
    C32      C        0.26644    0.96880    0.69336    1.000
    C33      C        0.26566    0.05720    0.74902    1.000
    C34      C        0.32550    0.89990    0.69210    1.000
    H15      H        0.22610    0.10420    0.75080    1.000
    C35      C        0.32319    0.07710    0.80252    1.000
    C36      C        0.38290    0.91940    0.74480    1.000
    H16      H        0.32680    0.83940    0.65520    1.000
    H17      H        0.32150    0.13600    0.83990    1.000
    C37      C        0.38296    0.00960    0.80038    1.000
    H18      H        0.42220    0.87140    0.74310    1.000
    C38      C        0.44594    0.03270    0.85478    1.000
    C39      C        0.46530    0.16160    0.87719    1.000
    C40      C        0.48792    0.92790    0.88386    1.000
    H19      H        0.43730    0.23260    0.85940    1.000
    C41      C        0.52590    0.18530    0.92580    1.000
    C42      C        0.54874    0.95150    0.93131    1.000
    H20      H        0.47490    0.84110    0.87120    1.000
    C43      C        0.56792    0.08020    0.95189    1.000
    C44      C        0.54541    0.32350    0.95206    1.000
    C45      C        0.59310    0.83680    0.96352    1.000
    H21      H        0.60910    0.09580    0.98320    1.000
    Cd4      Cd       0.59481    0.44938    0.52620    1.000
    O19      O        0.70826    0.39030    0.57871    1.000
    O20      O        0.64992    0.50020    0.64261    1.000
    O21      O        0.49574    0.41850    0.56627    1.000
    O22      O        0.60251    0.65930    0.49167    1.000
    O23      O        0.56506    0.27600    0.45875    1.000
    C46      C        0.70525    0.45160    0.63508    1.000
    O24      O        0.84693    0.36190    0.50772    1.000
    C47      C        0.76644    0.46880    0.69336    1.000
    C48      C        0.76566    0.55720    0.74902    1.000
    C49      C        0.82550    0.39990    0.69210    1.000
    H22      H        0.72610    0.60420    0.75080    1.000
    C50      C        0.82319    0.57710    0.80252    1.000
    C51      C        0.88290    0.41940    0.74480    1.000
    H23      H        0.82680    0.33940    0.65520    1.000
    H24      H        0.82150    0.63600    0.83990    1.000
    C52      C        0.88296    0.50960    0.80038    1.000
    H25      H        0.92220    0.37140    0.74310    1.000
    C53      C        0.94594    0.53270    0.85478    1.000
    C54      C        0.96530    0.66160    0.87719    1.000
    C55      C        0.98792    0.42790    0.88386    1.000
    H26      H        0.93730    0.73260    0.85940    1.000
    C56      C        0.02590    0.68530    0.92580    1.000
    C57      C        0.04874    0.45150    0.93131    1.000
    H27      H        0.97490    0.34110    0.87120    1.000
    C58      C        0.06792    0.58020    0.95189    1.000
    C59      C        0.04541    0.82350    0.95206    1.000
    C60      C        0.09310    0.33680    0.96352    1.000
    H28      H        0.10910    0.59580    0.98320    1.000
    Cd5      Cd       0.09481    0.05062    0.02620    1.000
    O25      O        0.20826    0.10970    0.07871    1.000
    O26      O        0.14992    0.99980    0.14261    1.000
    O27      O        0.99574    0.08150    0.06627    1.000
    O28      O        0.10251    0.84070    0.99167    1.000
    O29      O        0.06506    0.22400    0.95875    1.000
    C61      C        0.20525    0.04840    0.13508    1.000
    O30      O        0.34693    0.13810    0.00772    1.000
    C62      C        0.26644    0.03120    0.19336    1.000
    C63      C        0.26566    0.94280    0.24902    1.000
    C64      C        0.32550    0.10010    0.19210    1.000
    H29      H        0.22610    0.89580    0.25080    1.000
    C65      C        0.32319    0.92290    0.30252    1.000
    C66      C        0.38290    0.08060    0.24480    1.000
    H30      H        0.32680    0.16060    0.15520    1.000
    H31      H        0.32150    0.86400    0.33990    1.000
    C67      C        0.38296    0.99040    0.30038    1.000
    H32      H        0.42220    0.12860    0.24310    1.000
    C68      C        0.44594    0.96730    0.35478    1.000
    C69      C        0.46530    0.83840    0.37719    1.000
    C70      C        0.48792    0.07210    0.38386    1.000
    H33      H        0.43730    0.76740    0.35940    1.000
    C71      C        0.52590    0.81470    0.42580    1.000
    C72      C        0.54874    0.04850    0.43131    1.000
    H34      H        0.47490    0.15890    0.37120    1.000
    C73      C        0.56792    0.91980    0.45189    1.000
    C74      C        0.54541    0.67650    0.45206    1.000
    C75      C        0.59310    0.16320    0.46352    1.000
    H35      H        0.60910    0.90420    0.48320    1.000
    Cd6      Cd       0.59481    0.55062    0.02620    1.000
    O31      O        0.70826    0.60970    0.07871    1.000
    O32      O        0.64992    0.49980    0.14261    1.000
    O33      O        0.49574    0.58150    0.06627    1.000
    O34      O        0.60251    0.34070    0.99167    1.000
    O35      O        0.56506    0.72400    0.95875    1.000
    C76      C        0.70525    0.54840    0.13508    1.000
    O36      O        0.84693    0.63810    0.00772    1.000
    C77      C        0.76644    0.53120    0.19336    1.000
    C78      C        0.76566    0.44280    0.24902    1.000
    C79      C        0.82550    0.60010    0.19210    1.000
    H36      H        0.72610    0.39580    0.25080    1.000
    C80      C        0.82319    0.42290    0.30252    1.000
    C81      C        0.88290    0.58060    0.24480    1.000
    H37      H        0.82680    0.66060    0.15520    1.000
    H38      H        0.82150    0.36400    0.33990    1.000
    C82      C        0.88296    0.49040    0.30038    1.000
    H39      H        0.92220    0.62860    0.24310    1.000
    C83      C        0.94594    0.46730    0.35478    1.000
    C84      C        0.96530    0.33840    0.37719    1.000
    C85      C        0.98792    0.57210    0.38386    1.000
    H40      H        0.93730    0.26740    0.35940    1.000
    C86      C        0.02590    0.31470    0.42580    1.000
    C87      C        0.04874    0.54850    0.43131    1.000
    H41      H        0.97490    0.65890    0.37120    1.000
    C88      C        0.06792    0.41980    0.45189    1.000
    C89      C        0.04541    0.17650    0.45206    1.000
    C90      C        0.09310    0.66320    0.46352    1.000
    H42      H        0.10910    0.40420    0.48320    1.000
    Cd7      Cd       0.90519    0.05062    0.47380    1.000
    O37      O        0.79174    0.10970    0.42129    1.000
    O38      O        0.85008    0.99980    0.35739    1.000
    O39      O        0.00426    0.08150    0.43373    1.000
    O40      O        0.89749    0.84070    0.50833    1.000
    O41      O        0.93494    0.22400    0.54125    1.000
    C91      C        0.79475    0.04840    0.36492    1.000
    O42      O        0.65307    0.13810    0.49228    1.000
    C92      C        0.73356    0.03120    0.30664    1.000
    C93      C        0.73434    0.94280    0.25098    1.000
    C94      C        0.67450    0.10010    0.30790    1.000
    H43      H        0.77390    0.89580    0.24920    1.000
    C95      C        0.67681    0.92290    0.19748    1.000
    C96      C        0.61710    0.08060    0.25520    1.000
    H44      H        0.67320    0.16060    0.34480    1.000
    H45      H        0.67850    0.86400    0.16010    1.000
    C97      C        0.61704    0.99040    0.19962    1.000
    H46      H        0.57780    0.12860    0.25690    1.000
    C98      C        0.55406    0.96730    0.14522    1.000
    C99      C        0.53470    0.83840    0.12281    1.000
    C100     C        0.51208    0.07210    0.11614    1.000
    H47      H        0.56270    0.76740    0.14060    1.000
    C101     C        0.47410    0.81470    0.07420    1.000
    C102     C        0.45126    0.04850    0.06869    1.000
    H48      H        0.52510    0.15890    0.12880    1.000
    C103     C        0.43208    0.91980    0.04811    1.000
    C104     C        0.45459    0.67650    0.04794    1.000
    C105     C        0.40690    0.16320    0.03648    1.000
    H49      H        0.39090    0.90420    0.01680    1.000
    Cd8      Cd       0.40519    0.55062    0.47380    1.000
    O43      O        0.29174    0.60970    0.42129    1.000
    O44      O        0.35008    0.49980    0.35739    1.000
    O45      O        0.50426    0.58150    0.43373    1.000
    O46      O        0.39749    0.34070    0.50833    1.000
    O47      O        0.43494    0.72400    0.54125    1.000
    C106     C        0.29475    0.54840    0.36492    1.000
    O48      O        0.15307    0.63810    0.49228    1.000
    C107     C        0.23356    0.53120    0.30664    1.000
    C108     C        0.23434    0.44280    0.25098    1.000
    C109     C        0.17450    0.60010    0.30790    1.000
    H50      H        0.27390    0.39580    0.24920    1.000
    C110     C        0.17681    0.42290    0.19748    1.000
    C111     C        0.11710    0.58060    0.25520    1.000
    H51      H        0.17320    0.66060    0.34480    1.000
    H52      H        0.17850    0.36400    0.16010    1.000
    C112     C        0.11704    0.49040    0.19962    1.000
    H53      H        0.07780    0.62860    0.25690    1.000
    C113     C        0.05406    0.46730    0.14522    1.000
    C114     C        0.03470    0.33840    0.12281    1.000
    C115     C        0.01208    0.57210    0.11614    1.000
    H54      H        0.06270    0.26740    0.14060    1.000
    C116     C        0.97410    0.31470    0.07420    1.000
    C117     C        0.95126    0.54850    0.06869    1.000
    H55      H        0.02510    0.65890    0.12880    1.000
    C118     C        0.93208    0.41980    0.04811    1.000
    C119     C        0.95459    0.17650    0.04794    1.000
    C120     C        0.90690    0.66320    0.03648    1.000
    H56      H        0.89090    0.40420    0.01680    1.000
    Cd9      Cd       0.75000    0.75000    0.00000    1.000
    Cd10     Cd       0.25000    0.25000    0.00000    1.000
    Cd11     Cd       0.25000    0.75000    0.50000    1.000
    Cd12     Cd       0.75000    0.25000    0.50000    1.000
