# CIF file generated by openbabel 3.1.0, see https://openbabel.org
data_I
_chemical_name_common 'ADODII_clean'
_cell_length_a 7.3933
_cell_length_b 14.349
_cell_length_c 16.9754
_cell_angle_alpha 104.154
_cell_angle_beta 102.578
_cell_angle_gamma 90
_space_group_name_H-M_alt 'P 1'
_space_group_name_Hall 'P 1'
loop_
    _symmetry_equiv_pos_as_xyz
    x,y,z
loop_
    _atom_site_label
    _atom_site_type_symbol
    _atom_site_fract_x
    _atom_site_fract_y
    _atom_site_fract_z
    _atom_site_occupancy
    La1      La       0.50739    0.96377    0.50132    1.000
    La2      La       0.00607    0.03623    0.49868    1.000
    H1       H        0.28080    0.52700    0.09880    1.000
    H2       H        0.30160    0.43340    0.03120    1.000
    H3       H        0.89800    0.49210    0.11040    1.000
    H4       H        0.92280    0.42400    0.17140    1.000
    H5       H        0.36880    0.34370    0.13060    1.000
    H6       H        0.35120    0.43310    0.20300    1.000
    H7       H        0.96680    0.28100    0.06880    1.000
    H8       H        0.89940    0.34770    0.00840    1.000
    H9       H        0.57410    0.34190    0.24840    1.000
    H10      H        0.77600    0.26880    0.33820    1.000
    H11      H        0.34420    0.12730    0.37160    1.000
    H12      H        0.14730    0.19940    0.28240    1.000
    H13      H        0.25200    0.21060    0.86280    1.000
    H14      H        0.10800    0.11890    0.73060    1.000
    H15      H        0.62910    0.11880    0.80240    1.000
    H16      H        0.77260    0.20640    0.93460    1.000
    H17      H        0.72590    0.55600    0.19840    1.000
    H18      H        0.58140    0.67220    0.27600    1.000
    H19      H        0.07100    0.79040    0.41760    1.000
    H20      H        0.22050    0.67560    0.33560    1.000
    H21      H        0.18200    0.47300    0.90120    1.000
    H22      H        0.27040    0.56660    0.96880    1.000
    H23      H        0.78760    0.50790    0.88960    1.000
    H24      H        0.75140    0.57600    0.82860    1.000
    H25      H        0.23820    0.65630    0.86940    1.000
    H26      H        0.14820    0.56690    0.79700    1.000
    H27      H        0.89800    0.71900    0.93120    1.000
    H28      H        0.89100    0.65230    0.99160    1.000
    H29      H        0.32570    0.65810    0.75160    1.000
    H30      H        0.43780    0.73120    0.66180    1.000
    H31      H        0.97260    0.87270    0.62840    1.000
    H32      H        0.86490    0.80060    0.71760    1.000
    H33      H        0.38920    0.78940    0.13720    1.000
    H34      H        0.37740    0.88110    0.26940    1.000
    H35      H        0.82670    0.88120    0.19760    1.000
    H36      H        0.83800    0.79360    0.06540    1.000
    H37      H        0.52750    0.44400    0.80160    1.000
    H38      H        0.30540    0.32780    0.72400    1.000
    H39      H        0.65340    0.20960    0.58240    1.000
    H40      H        0.88490    0.32440    0.66440    1.000
    C1       C        0.12480    0.41050    0.10400    1.000
    C2       C        0.21370    0.47090    0.05880    1.000
    C3       C        0.98830    0.46610    0.14880    1.000
    C4       C        0.28370    0.37760    0.16240    1.000
    C5       C        0.00820    0.32470    0.04000    1.000
    C6       C        0.34230    0.27550    0.25560    1.000
    C7       C        0.52810    0.29810    0.27260    1.000
    C8       C        0.64890    0.25440    0.32700    1.000
    C9       C        0.58310    0.19110    0.36400    1.000
    C10      C        0.39180    0.17000    0.34700    1.000
    C11      C        0.27470    0.21290    0.29340    1.000
    C12      C        0.02170    0.21870    0.90880    1.000
    C13      C        0.12630    0.19220    0.85020    1.000
    C14      C        0.03940    0.13710    0.77120    1.000
    C15      C        0.85230    0.10890    0.75240    1.000
    C16      C        0.75500    0.13660    0.81420    1.000
    C17      C        0.83930    0.19020    0.89300    1.000
    C18      C        0.75460    0.05380    0.66880    1.000
    C19      C        0.98670    0.60510    0.25800    1.000
    C20      C        0.79600    0.60370    0.24160    1.000
    C21      C        0.71020    0.67230    0.28900    1.000
    C22      C        0.81020    0.74280    0.35700    1.000
    C23      C        0.00130    0.74360    0.37340    1.000
    C24      C        0.09160    0.67480    0.32420    1.000
    C25      C        0.71240    0.81750    0.40620    1.000
    C26      C        0.71630    0.14370    0.41860    1.000
    C27      C        0.02080    0.58950    0.89600    1.000
    C28      C        0.15490    0.52910    0.94120    1.000
    C29      C        0.83950    0.53390    0.85120    1.000
    C30      C        0.12130    0.62240    0.83760    1.000
    C31      C        0.96820    0.67530    0.96000    1.000
    C32      C        0.08670    0.72450    0.74440    1.000
    C33      C        0.25550    0.70190    0.72740    1.000
    C34      C        0.32190    0.74560    0.67300    1.000
    C35      C        0.21910    0.80890    0.63600    1.000
    C36      C        0.04480    0.83000    0.65300    1.000
    C37      C        0.98130    0.78710    0.70660    1.000
    C38      C        0.11290    0.78130    0.09120    1.000
    C39      C        0.27610    0.80780    0.14980    1.000
    C40      C        0.26820    0.86290    0.22880    1.000
    C41      C        0.09990    0.89110    0.24760    1.000
    C42      C        0.94080    0.86340    0.18580    1.000
    C43      C        0.94630    0.80980    0.10700    1.000
    C44      C        0.08580    0.94620    0.33120    1.000
    C45      C        0.72870    0.39490    0.74200    1.000
    C46      C        0.55440    0.39630    0.75840    1.000
    C47      C        0.42120    0.32770    0.71100    1.000
    C48      C        0.45320    0.25720    0.64300    1.000
    C49      C        0.62790    0.25640    0.62660    1.000
    C50      C        0.76740    0.32520    0.67580    1.000
    C51      C        0.30620    0.18250    0.59380    1.000
    C52      C        0.29770    0.85630    0.58140    1.000
    O1       O        0.83229    0.04240    0.60778    1.000
    O2       O        0.59327    0.02220    0.65794    1.000
    O3       O        0.88300    0.17390    0.44260    1.000
    O4       O        0.66035    0.07190    0.44010    1.000
    O5       O        0.80697    0.88390    0.46534    1.000
    O6       O        0.54063    0.81540    0.39046    1.000
    O7       O        0.21310    0.31540    0.20420    1.000
    O8       O        0.08835    0.54230    0.21450    1.000
    O9       O        0.11595    0.27560    0.98510    1.000
    O10      O        0.22451    0.95760    0.39222    1.000
    O11      O        0.93533    0.97780    0.34206    1.000
    O12      O        0.44040    0.82610    0.55740    1.000
    O13      O        0.22025    0.92810    0.55990    1.000
    O14      O        0.34163    0.11610    0.53466    1.000
    O15      O        0.15017    0.18460    0.60954    1.000
    O16      O        0.00890    0.68460    0.79580    1.000
    O17      O        0.87385    0.45770    0.78550    1.000
    O18      O        0.13085    0.72440    0.01490    1.000
    O19      O        0.07750    0.50000    0.00000    1.000
