# CIF file generated by openbabel 3.1.0, see https://openbabel.org
data_I
_chemical_name_common 'image0'
_cell_length_a 13.2235
_cell_length_b 13.2235
_cell_length_c 13.2235
_cell_angle_alpha 90
_cell_angle_beta 90
_cell_angle_gamma 90
_space_group_name_H-M_alt 'P 1'
_space_group_name_Hall 'P 1'
loop_
    _symmetry_equiv_pos_as_xyz
    x,y,z
loop_
    _atom_site_label
    _atom_site_type_symbol
    _atom_site_fract_x
    _atom_site_fract_y
    _atom_site_fract_z
    _atom_site_occupancy
    N1       N        0.63712    0.93657    0.95544    1.000
    N2       N        0.71552    0.98061    0.96162    1.000
    N3       N        0.79247    0.02080    0.96570    1.000
    N4       N        0.86288    0.06343    0.45544    1.000
    N5       N        0.78448    0.01939    0.46162    1.000
    N6       N        0.70753    0.97920    0.46570    1.000
    N7       N        0.36288    0.43657    0.54456    1.000
    N8       N        0.28448    0.48061    0.53838    1.000
    N9       N        0.20753    0.52080    0.53430    1.000
    N10      N        0.13712    0.56343    0.04456    1.000
    N11      N        0.21552    0.51939    0.03838    1.000
    N12      N        0.29247    0.47920    0.03430    1.000
    N13      N        0.95544    0.63712    0.93657    1.000
    N14      N        0.96162    0.71552    0.98061    1.000
    N15      N        0.96570    0.79247    0.02080    1.000
    N16      N        0.45544    0.86288    0.06343    1.000
    N17      N        0.46162    0.78448    0.01939    1.000
    N18      N        0.46570    0.70753    0.97920    1.000
    N19      N        0.54456    0.36288    0.43657    1.000
    N20      N        0.53838    0.28448    0.48061    1.000
    N21      N        0.53430    0.20753    0.52080    1.000
    N22      N        0.04456    0.13712    0.56343    1.000
    N23      N        0.03838    0.21552    0.51939    1.000
    N24      N        0.03430    0.29247    0.47920    1.000
    N25      N        0.93657    0.95544    0.63712    1.000
    N26      N        0.98061    0.96162    0.71552    1.000
    N27      N        0.02080    0.96570    0.79247    1.000
    N28      N        0.06343    0.45544    0.86288    1.000
    N29      N        0.01939    0.46162    0.78448    1.000
    N30      N        0.97920    0.46570    0.70753    1.000
    N31      N        0.43657    0.54456    0.36288    1.000
    N32      N        0.48061    0.53838    0.28448    1.000
    N33      N        0.52080    0.53430    0.20753    1.000
    N34      N        0.56343    0.04456    0.13712    1.000
    N35      N        0.51939    0.03838    0.21552    1.000
    N36      N        0.47920    0.03430    0.29247    1.000
    N37      N        0.36288    0.06343    0.04456    1.000
    N38      N        0.28448    0.01939    0.03838    1.000
    N39      N        0.20753    0.97920    0.03430    1.000
    N40      N        0.13712    0.93657    0.54456    1.000
    N41      N        0.21552    0.98061    0.53838    1.000
    N42      N        0.29247    0.02080    0.53430    1.000
    N43      N        0.63712    0.56343    0.45544    1.000
    N44      N        0.71552    0.51939    0.46162    1.000
    N45      N        0.79247    0.47920    0.46570    1.000
    N46      N        0.86288    0.43657    0.95544    1.000
    N47      N        0.78448    0.48061    0.96162    1.000
    N48      N        0.70753    0.52080    0.96570    1.000
    N49      N        0.04456    0.36288    0.06343    1.000
    N50      N        0.03838    0.28448    0.01939    1.000
    N51      N        0.03430    0.20753    0.97920    1.000
    N52      N        0.54456    0.13712    0.93657    1.000
    N53      N        0.53838    0.21552    0.98061    1.000
    N54      N        0.53430    0.29247    0.02080    1.000
    N55      N        0.45544    0.63712    0.56343    1.000
    N56      N        0.46162    0.71552    0.51939    1.000
    N57      N        0.46570    0.79247    0.47920    1.000
    N58      N        0.95544    0.86288    0.43657    1.000
    N59      N        0.96162    0.78448    0.48061    1.000
    N60      N        0.96570    0.70753    0.52080    1.000
    N61      N        0.06343    0.04456    0.36288    1.000
    N62      N        0.01939    0.03838    0.28448    1.000
    N63      N        0.97920    0.03430    0.20753    1.000
    N64      N        0.93657    0.54456    0.13712    1.000
    N65      N        0.98061    0.53838    0.21552    1.000
    N66      N        0.02080    0.53430    0.29247    1.000
    N67      N        0.56343    0.45544    0.63712    1.000
    N68      N        0.51939    0.46162    0.71552    1.000
    N69      N        0.47920    0.46570    0.79247    1.000
    N70      N        0.43657    0.95544    0.86288    1.000
    N71      N        0.48061    0.96162    0.78448    1.000
    N72      N        0.52080    0.96570    0.70753    1.000
    Fe1      Fe       0.50000    0.00000    0.00000    1.000
    Fe2      Fe       0.00000    0.00000    0.50000    1.000
    Fe3      Fe       0.50000    0.50000    0.50000    1.000
    Fe4      Fe       0.00000    0.50000    0.00000    1.000
    K1       K        0.00000    0.00000    0.00000    1.000
    K2       K        0.50000    0.00000    0.50000    1.000
    K3       K        0.00000    0.50000    0.50000    1.000
    K4       K        0.50000    0.50000    0.00000    1.000
