# CIF file generated by openbabel 3.1.0, see https://openbabel.org
data_I
_chemical_name_common 'image0'
_cell_length_a 9.4049
_cell_length_b 12.7739
_cell_length_c 8.5805
_cell_angle_alpha 90
_cell_angle_beta 112.796
_cell_angle_gamma 90
_space_group_name_H-M_alt 'P 1'
_space_group_name_Hall 'P 1'
loop_
    _symmetry_equiv_pos_as_xyz
    x,y,z
loop_
    _atom_site_label
    _atom_site_type_symbol
    _atom_site_fract_x
    _atom_site_fract_y
    _atom_site_fract_z
    _atom_site_occupancy
    Al1      Al       0.43610    0.09890    0.40840    1.000
    Al2      Al       0.12630    0.38230    0.18030    1.000
    P1       P        0.21590    0.95010    0.48180    1.000
    P2       P        0.29410    0.21120    0.04700    1.000
    F1       F        0.48870    0.96350    0.36630    1.000
    O1       O        0.38000    0.14670    0.19410    1.000
    O2       O        0.40580    0.27580    0.00540    1.000
    O3       O        0.16900    0.28010    0.07580    1.000
    O4       O        0.23770    0.03290    0.36920    1.000
    O5       O        0.34660    0.87500    0.53760    1.000
    O6       O        0.06680    0.88800    0.37540    1.000
    O7       O        0.19880    0.99700    0.63790    1.000
    O8       O        0.20350    0.14080    0.89550    1.000
    Al3      Al       0.56390    0.59890    0.09160    1.000
    Al4      Al       0.87370    0.88230    0.31970    1.000
    P3       P        0.78410    0.45010    0.01820    1.000
    P4       P        0.70590    0.71120    0.45300    1.000
    F2       F        0.51130    0.46350    0.13370    1.000
    O9       O        0.62000    0.64670    0.30590    1.000
    O10      O        0.59420    0.77580    0.49460    1.000
    O11      O        0.83100    0.78010    0.42420    1.000
    O12      O        0.76230    0.53290    0.13080    1.000
    O13      O        0.65340    0.37500    0.96240    1.000
    O14      O        0.93320    0.38800    0.12460    1.000
    O15      O        0.80120    0.49700    0.86210    1.000
    O16      O        0.79650    0.64080    0.60450    1.000
    Al5      Al       0.56390    0.90110    0.59160    1.000
    Al6      Al       0.87370    0.61770    0.81970    1.000
    P5       P        0.78410    0.04990    0.51820    1.000
    P6       P        0.70590    0.78880    0.95300    1.000
    F3       F        0.51130    0.03650    0.63370    1.000
    O17      O        0.62000    0.85330    0.80590    1.000
    O18      O        0.59420    0.72420    0.99460    1.000
    O19      O        0.83100    0.71990    0.92420    1.000
    O20      O        0.76230    0.96710    0.63080    1.000
    O21      O        0.65340    0.12500    0.46240    1.000
    O22      O        0.93320    0.11200    0.62460    1.000
    O23      O        0.80120    0.00300    0.36210    1.000
    O24      O        0.79650    0.85920    0.10450    1.000
    Al7      Al       0.43610    0.40110    0.90840    1.000
    Al8      Al       0.12630    0.11770    0.68030    1.000
    P7       P        0.21590    0.54990    0.98180    1.000
    P8       P        0.29410    0.28880    0.54700    1.000
    F4       F        0.48870    0.53650    0.86630    1.000
    O25      O        0.38000    0.35330    0.69410    1.000
    O26      O        0.40580    0.22420    0.50540    1.000
    O27      O        0.16900    0.21990    0.57580    1.000
    O28      O        0.23770    0.46710    0.86920    1.000
    O29      O        0.34660    0.62500    0.03760    1.000
    O30      O        0.06680    0.61200    0.87540    1.000
    O31      O        0.19880    0.50300    0.13790    1.000
    O32      O        0.20350    0.35920    0.39550    1.000
