# CIF file generated by openbabel 3.1.0, see https://openbabel.org
data_I
_chemical_name_common 'image0'
_cell_length_a 11.38
_cell_length_b 7.182
_cell_length_c 6.628
_cell_angle_alpha 90
_cell_angle_beta 109.754
_cell_angle_gamma 90
_space_group_name_H-M_alt 'P 1'
_space_group_name_Hall 'P 1'
loop_
    _symmetry_equiv_pos_as_xyz
    x,y,z
loop_
    _atom_site_label
    _atom_site_type_symbol
    _atom_site_fract_x
    _atom_site_fract_y
    _atom_site_fract_z
    _atom_site_occupancy
    O1       O        0.50820    0.30260    0.33760    1.000
    O2       O        0.67300    0.24950    0.11620    1.000
    O3       O        0.84720    0.11260    0.11850    1.000
    C1       C        0.73580    0.15320    0.03500    1.000
    H1       H        0.69510    0.10710    0.89810    1.000
    O4       O        0.00820    0.80260    0.33760    1.000
    O5       O        0.17300    0.74950    0.11620    1.000
    O6       O        0.34720    0.61260    0.11850    1.000
    C2       C        0.23580    0.65320    0.03500    1.000
    H2       H        0.19510    0.60710    0.89810    1.000
    O7       O        0.49180    0.30260    0.66240    1.000
    O8       O        0.32700    0.24950    0.88380    1.000
    O9       O        0.15280    0.11260    0.88150    1.000
    C3       C        0.26420    0.15320    0.96500    1.000
    H3       H        0.30490    0.10710    0.10190    1.000
    O10      O        0.99180    0.80260    0.66240    1.000
    O11      O        0.82700    0.74950    0.88380    1.000
    O12      O        0.65280    0.61260    0.88150    1.000
    C4       C        0.76420    0.65320    0.96500    1.000
    H4       H        0.80490    0.60710    0.10190    1.000
    Gd1      Gd       0.50000    0.44955    0.00000    1.000
    Gd2      Gd       0.00000    0.94955    0.00000    1.000
    C5       C        0.50000    0.38100    0.50000    1.000
    H5       H        0.50000    0.51070    0.50000    1.000
    C6       C        0.00000    0.88100    0.50000    1.000
    H6       H        0.00000    0.01070    0.50000    1.000
