# CIF file generated by openbabel 3.1.0, see https://openbabel.org
data_I
_chemical_name_common 'MUVGOA_clean'
_cell_length_a 12.614
_cell_length_b 22.857
_cell_length_c 14.604
_cell_angle_alpha 90
_cell_angle_beta 90
_cell_angle_gamma 90
_space_group_name_H-M_alt 'P 1'
_space_group_name_Hall 'P 1'
loop_
    _symmetry_equiv_pos_as_xyz
    x,y,z
loop_
    _atom_site_label
    _atom_site_type_symbol
    _atom_site_fract_x
    _atom_site_fract_y
    _atom_site_fract_z
    _atom_site_occupancy
    Zn1      Zn       0.50000    0.75000    0.76142    1.000
    Zn2      Zn       0.50000    0.25000    0.73858    1.000
    Zn3      Zn       0.50000    0.25000    0.23858    1.000
    Zn4      Zn       0.50000    0.75000    0.26142    1.000
    H1       H        0.07300    0.90400    0.86200    1.000
    H2       H        0.20100    0.84020    0.86800    1.000
    H3       H        0.21000    0.84520    0.15300    1.000
    H4       H        0.08000    0.91890    0.14900    1.000
    H5       H        0.65200    0.95090    0.79600    1.000
    H6       H        0.63800    0.85640    0.79580    1.000
    H7       H        0.35100    0.85460    0.72400    1.000
    H8       H        0.34100    0.95180    0.70700    1.000
    H9       H        0.92700    0.59600    0.86200    1.000
    H10      H        0.79900    0.65980    0.86800    1.000
    H11      H        0.79000    0.65480    0.15300    1.000
    H12      H        0.92000    0.58110    0.14900    1.000
    H13      H        0.34800    0.54910    0.79600    1.000
    H14      H        0.36200    0.64360    0.79580    1.000
    H15      H        0.64900    0.64540    0.72400    1.000
    H16      H        0.65900    0.54820    0.70700    1.000
    H17      H        0.07300    0.09600    0.63800    1.000
    H18      H        0.20100    0.15980    0.63200    1.000
    H19      H        0.21000    0.15480    0.34700    1.000
    H20      H        0.08000    0.08110    0.35100    1.000
    H21      H        0.65200    0.04910    0.70400    1.000
    H22      H        0.63800    0.14360    0.70420    1.000
    H23      H        0.35100    0.14540    0.77600    1.000
    H24      H        0.34100    0.04820    0.79300    1.000
    H25      H        0.92700    0.40400    0.63800    1.000
    H26      H        0.79900    0.34020    0.63200    1.000
    H27      H        0.79000    0.34520    0.34700    1.000
    H28      H        0.92000    0.41890    0.35100    1.000
    H29      H        0.34800    0.45090    0.70400    1.000
    H30      H        0.36200    0.35640    0.70420    1.000
    H31      H        0.64900    0.35460    0.77600    1.000
    H32      H        0.65900    0.45180    0.79300    1.000
    H33      H        0.92700    0.09600    0.13800    1.000
    H34      H        0.79900    0.15980    0.13200    1.000
    H35      H        0.79000    0.15480    0.84700    1.000
    H36      H        0.92000    0.08110    0.85100    1.000
    H37      H        0.34800    0.04910    0.20400    1.000
    H38      H        0.36200    0.14360    0.20420    1.000
    H39      H        0.64900    0.14540    0.27600    1.000
    H40      H        0.65900    0.04820    0.29300    1.000
    H41      H        0.07300    0.40400    0.13800    1.000
    H42      H        0.20100    0.34020    0.13200    1.000
    H43      H        0.21000    0.34520    0.84700    1.000
    H44      H        0.08000    0.41890    0.85100    1.000
    H45      H        0.65200    0.45090    0.20400    1.000
    H46      H        0.63800    0.35640    0.20420    1.000
    H47      H        0.35100    0.35460    0.27600    1.000
    H48      H        0.34100    0.45180    0.29300    1.000
    H49      H        0.92700    0.90400    0.36200    1.000
    H50      H        0.79900    0.84020    0.36800    1.000
    H51      H        0.79000    0.84520    0.65300    1.000
    H52      H        0.92000    0.91890    0.64900    1.000
    H53      H        0.34800    0.95090    0.29600    1.000
    H54      H        0.36200    0.85640    0.29580    1.000
    H55      H        0.64900    0.85460    0.22400    1.000
    H56      H        0.65900    0.95180    0.20700    1.000
    H57      H        0.07300    0.59600    0.36200    1.000
    H58      H        0.20100    0.65980    0.36800    1.000
    H59      H        0.21000    0.65480    0.65300    1.000
    H60      H        0.08000    0.58110    0.64900    1.000
    H61      H        0.65200    0.54910    0.29600    1.000
    H62      H        0.63800    0.64360    0.29580    1.000
    H63      H        0.35100    0.64540    0.22400    1.000
    H64      H        0.34100    0.54820    0.20700    1.000
    C1       C        0.18590    0.86053    0.08975    1.000
    C2       C        0.22430    0.83571    0.00828    1.000
    C3       C        0.34526    0.76647    0.92990    1.000
    C4       C        0.34491    0.76832    0.09176    1.000
    C5       C        0.30318    0.78952    0.01014    1.000
    C6       C        0.58530    0.87586    0.77660    1.000
    C7       C        0.58880    0.93659    0.77222    1.000
    C8       C        0.49665    0.96749    0.75230    1.000
    C9       C        0.18290    0.85603    0.92568    1.000
    C10      C        0.40460    0.93543    0.73660    1.000
    C11      C        0.97630    0.96698    0.00210    1.000
    C12      C        0.90860    0.96286    0.08390    1.000
    C13      C        0.90840    0.95947    0.92050    1.000
    C14      C        0.10570    0.90219    0.08740    1.000
    C15      C        0.06350    0.92060    0.00432    1.000
    C16      C        0.40930    0.87465    0.74040    1.000
    C17      C        0.10380    0.89752    0.92350    1.000
    C18      C        0.81410    0.63947    0.08975    1.000
    C19      C        0.77570    0.66429    0.00828    1.000
    C20      C        0.65474    0.73353    0.92990    1.000
    C21      C        0.65509    0.73168    0.09176    1.000
    C22      C        0.69682    0.71048    0.01014    1.000
    C23      C        0.41470    0.62414    0.77660    1.000
    C24      C        0.41120    0.56341    0.77222    1.000
    C25      C        0.50335    0.53251    0.75230    1.000
    C26      C        0.81710    0.64397    0.92568    1.000
    C27      C        0.59540    0.56457    0.73660    1.000
    C28      C        0.02370    0.53302    0.00210    1.000
    C29      C        0.09140    0.53714    0.08390    1.000
    C30      C        0.09160    0.54053    0.92050    1.000
    C31      C        0.89430    0.59781    0.08740    1.000
    C32      C        0.93650    0.57940    0.00432    1.000
    C33      C        0.59070    0.62535    0.74040    1.000
    C34      C        0.89620    0.60248    0.92350    1.000
    C35      C        0.18590    0.13947    0.41025    1.000
    C36      C        0.22430    0.16429    0.49172    1.000
    C37      C        0.34526    0.23353    0.57010    1.000
    C38      C        0.34491    0.23168    0.40824    1.000
    C39      C        0.30318    0.21048    0.48986    1.000
    C40      C        0.58530    0.12414    0.72340    1.000
    C41      C        0.58880    0.06341    0.72778    1.000
    C42      C        0.49665    0.03251    0.74770    1.000
    C43      C        0.18290    0.14397    0.57432    1.000
    C44      C        0.40460    0.06457    0.76340    1.000
    C45      C        0.97630    0.03302    0.49790    1.000
    C46      C        0.90860    0.03714    0.41610    1.000
    C47      C        0.90840    0.04053    0.57950    1.000
    C48      C        0.10570    0.09781    0.41260    1.000
    C49      C        0.06350    0.07940    0.49568    1.000
    C50      C        0.40930    0.12535    0.75960    1.000
    C51      C        0.10380    0.10248    0.57650    1.000
    C52      C        0.81410    0.36053    0.41025    1.000
    C53      C        0.77570    0.33571    0.49172    1.000
    C54      C        0.65474    0.26647    0.57010    1.000
    C55      C        0.65509    0.26832    0.40824    1.000
    C56      C        0.69682    0.28952    0.48986    1.000
    C57      C        0.41470    0.37586    0.72340    1.000
    C58      C        0.41120    0.43659    0.72778    1.000
    C59      C        0.50335    0.46749    0.74770    1.000
    C60      C        0.81710    0.35603    0.57432    1.000
    C61      C        0.59540    0.43543    0.76340    1.000
    C62      C        0.02370    0.46698    0.49790    1.000
    C63      C        0.09140    0.46286    0.41610    1.000
    C64      C        0.09160    0.45947    0.57950    1.000
    C65      C        0.89430    0.40219    0.41260    1.000
    C66      C        0.93650    0.42060    0.49568    1.000
    C67      C        0.59070    0.37465    0.75960    1.000
    C68      C        0.89620    0.39752    0.57650    1.000
    C69      C        0.81410    0.13947    0.91025    1.000
    C70      C        0.77570    0.16429    0.99172    1.000
    C71      C        0.65474    0.23353    0.07010    1.000
    C72      C        0.65509    0.23168    0.90824    1.000
    C73      C        0.69682    0.21048    0.98986    1.000
    C74      C        0.41470    0.12414    0.22340    1.000
    C75      C        0.41120    0.06341    0.22778    1.000
    C76      C        0.50335    0.03251    0.24770    1.000
    C77      C        0.81710    0.14397    0.07432    1.000
    C78      C        0.59540    0.06457    0.26340    1.000
    C79      C        0.02370    0.03302    0.99790    1.000
    C80      C        0.09140    0.03714    0.91610    1.000
    C81      C        0.09160    0.04053    0.07950    1.000
    C82      C        0.89430    0.09781    0.91260    1.000
    C83      C        0.93650    0.07940    0.99568    1.000
    C84      C        0.59070    0.12535    0.25960    1.000
    C85      C        0.89620    0.10248    0.07650    1.000
    C86      C        0.18590    0.36053    0.91025    1.000
    C87      C        0.22430    0.33571    0.99172    1.000
    C88      C        0.34526    0.26647    0.07010    1.000
    C89      C        0.34491    0.26832    0.90824    1.000
    C90      C        0.30318    0.28952    0.98986    1.000
    C91      C        0.58530    0.37586    0.22340    1.000
    C92      C        0.58880    0.43659    0.22778    1.000
    C93      C        0.49665    0.46749    0.24770    1.000
    C94      C        0.18290    0.35603    0.07432    1.000
    C95      C        0.40460    0.43543    0.26340    1.000
    C96      C        0.97630    0.46698    0.99790    1.000
    C97      C        0.90860    0.46286    0.91610    1.000
    C98      C        0.90840    0.45947    0.07950    1.000
    C99      C        0.10570    0.40219    0.91260    1.000
    C100     C        0.06350    0.42060    0.99568    1.000
    C101     C        0.40930    0.37465    0.25960    1.000
    C102     C        0.10380    0.39752    0.07650    1.000
    C103     C        0.81410    0.86053    0.58975    1.000
    C104     C        0.77570    0.83571    0.50828    1.000
    C105     C        0.65474    0.76647    0.42990    1.000
    C106     C        0.65509    0.76832    0.59176    1.000
    C107     C        0.69682    0.78952    0.51014    1.000
    C108     C        0.41470    0.87586    0.27660    1.000
    C109     C        0.41120    0.93659    0.27222    1.000
    C110     C        0.50335    0.96749    0.25230    1.000
    C111     C        0.81710    0.85603    0.42568    1.000
    C112     C        0.59540    0.93543    0.23660    1.000
    C113     C        0.02370    0.96698    0.50210    1.000
    C114     C        0.09140    0.96286    0.58390    1.000
    C115     C        0.09160    0.95947    0.42050    1.000
    C116     C        0.89430    0.90219    0.58740    1.000
    C117     C        0.93650    0.92060    0.50432    1.000
    C118     C        0.59070    0.87465    0.24040    1.000
    C119     C        0.89620    0.89752    0.42350    1.000
    C120     C        0.18590    0.63947    0.58975    1.000
    C121     C        0.22430    0.66429    0.50828    1.000
    C122     C        0.34526    0.73353    0.42990    1.000
    C123     C        0.34491    0.73168    0.59176    1.000
    C124     C        0.30318    0.71048    0.51014    1.000
    C125     C        0.58530    0.62414    0.27660    1.000
    C126     C        0.58880    0.56341    0.27222    1.000
    C127     C        0.49665    0.53251    0.25230    1.000
    C128     C        0.18290    0.64397    0.42568    1.000
    C129     C        0.40460    0.56457    0.23660    1.000
    C130     C        0.97630    0.53302    0.50210    1.000
    C131     C        0.90860    0.53714    0.58390    1.000
    C132     C        0.90840    0.54053    0.42050    1.000
    C133     C        0.10570    0.59781    0.58740    1.000
    C134     C        0.06350    0.57940    0.50432    1.000
    C135     C        0.40930    0.62535    0.24040    1.000
    C136     C        0.10380    0.60248    0.42350    1.000
    N1       N        0.37970    0.74825    0.86317    1.000
    N2       N        0.37890    0.75115    0.15911    1.000
    N3       N        0.86120    0.95840    0.14960    1.000
    N4       N        0.49669    0.84495    0.76004    1.000
    N5       N        0.85940    0.95243    0.85560    1.000
    N6       N        0.62030    0.75175    0.86317    1.000
    N7       N        0.62110    0.74885    0.15911    1.000
    N8       N        0.13880    0.54160    0.14960    1.000
    N9       N        0.50331    0.65505    0.76004    1.000
    N10      N        0.14060    0.54757    0.85560    1.000
    N11      N        0.37970    0.25175    0.63683    1.000
    N12      N        0.37890    0.24885    0.34089    1.000
    N13      N        0.86120    0.04160    0.35040    1.000
    N14      N        0.49669    0.15505    0.73996    1.000
    N15      N        0.85940    0.04757    0.64440    1.000
    N16      N        0.62030    0.24825    0.63683    1.000
    N17      N        0.62110    0.25115    0.34089    1.000
    N18      N        0.13880    0.45840    0.35040    1.000
    N19      N        0.50331    0.34495    0.73996    1.000
    N20      N        0.14060    0.45243    0.64440    1.000
    N21      N        0.62030    0.25175    0.13683    1.000
    N22      N        0.62110    0.24885    0.84089    1.000
    N23      N        0.13880    0.04160    0.85040    1.000
    N24      N        0.50331    0.15505    0.23996    1.000
    N25      N        0.14060    0.04757    0.14440    1.000
    N26      N        0.37970    0.24825    0.13683    1.000
    N27      N        0.37890    0.25115    0.84089    1.000
    N28      N        0.86120    0.45840    0.85040    1.000
    N29      N        0.49669    0.34495    0.23996    1.000
    N30      N        0.85940    0.45243    0.14440    1.000
    N31      N        0.62030    0.74825    0.36317    1.000
    N32      N        0.62110    0.75115    0.65911    1.000
    N33      N        0.13880    0.95840    0.64960    1.000
    N34      N        0.50331    0.84495    0.26004    1.000
    N35      N        0.14060    0.95243    0.35560    1.000
    N36      N        0.37970    0.75175    0.36317    1.000
    N37      N        0.37890    0.74885    0.65911    1.000
    N38      N        0.86120    0.54160    0.64960    1.000
    N39      N        0.49669    0.65505    0.26004    1.000
    N40      N        0.85940    0.54757    0.35560    1.000
