# CIF file generated by openbabel 3.1.0, see https://openbabel.org
data_I
_chemical_name_common 'image0'
_cell_length_a 15.876
_cell_length_b 23.562
_cell_length_c 12.514
_cell_angle_alpha 90
_cell_angle_beta 117.77
_cell_angle_gamma 90
_space_group_name_H-M_alt 'P 1'
_space_group_name_Hall 'P 1'
loop_
    _symmetry_equiv_pos_as_xyz
    x,y,z
loop_
    _atom_site_label
    _atom_site_type_symbol
    _atom_site_fract_x
    _atom_site_fract_y
    _atom_site_fract_z
    _atom_site_occupancy
    C1       C        0.04190    0.57380    0.12190    1.000
    H1       H        0.07130    0.56020    0.20070    1.000
    C2       C        0.08860    0.61400    0.08570    1.000
    C3       C        0.04790    0.63430    0.96800    1.000
    H2       H        0.07940    0.66100    0.94490    1.000
    C4       C        0.95090    0.55400    0.04010    1.000
    H3       H        0.91890    0.52790    0.06380    1.000
    C5       C        0.90990    0.57480    0.92220    1.000
    C6       C        0.95940    0.61400    0.88600    1.000
    H4       H        0.93220    0.62610    0.80620    1.000
    N1       N        0.81860    0.55820    0.83170    1.000
    H5       H        0.80770    0.56380    0.75850    1.000
    C7       C        0.74630    0.53470    0.84480    1.000
    O1       O        0.58020    0.51930    0.73030    1.000
    O2       O        0.74780    0.52090    0.94170    1.000
    C8       C        0.65530    0.52780    0.72140    1.000
    O3       O        0.66730    0.53130    0.62930    1.000
    Ca1      Ca       0.91691    0.00424    0.57367    1.000
    S1       S        0.19910    0.64370    0.18600    1.000
    O4       O        0.25640    0.59730    0.26210    1.000
    O5       O        0.23660    0.67820    0.11980    1.000
    O6       O        0.02390    0.84910    0.61950    1.000
    O7       O        0.10440    0.89070    0.41260    1.000
    O8       O        0.02480    0.93690    0.54160    1.000
    C9       C        0.08260    0.85870    0.47420    1.000
    N2       N        0.08930    0.80090    0.47810    1.000
    H6       H        0.07400    0.78420    0.52760    1.000
    C10      C        0.13750    0.70710    0.44600    1.000
    H7       H        0.13190    0.69420    0.51270    1.000
    C11      C        0.11870    0.76460    0.41030    1.000
    C12      C        0.16450    0.66960    0.38060    1.000
    H8       H        0.17750    0.63170    0.40360    1.000
    C13      C        0.03980    0.88380    0.55320    1.000
    C14      C        0.17140    0.68990    0.28070    1.000
    C15      C        0.12720    0.78450    0.31020    1.000
    H9       H        0.11560    0.82240    0.28760    1.000
    C16      C        0.15330    0.74640    0.24410    1.000
    H10      H        0.15840    0.75880    0.17690    1.000
    S2       S        0.20280    0.62990    0.22400    1.000
    O9       O        0.24800    0.58150    0.30400    1.000
    O10      O        0.25100    0.65830    0.16300    1.000
    C17      C        0.54190    0.07380    0.12190    1.000
    H11      H        0.57130    0.06020    0.20070    1.000
    C18      C        0.58860    0.11400    0.08570    1.000
    C19      C        0.54790    0.13430    0.96800    1.000
    H12      H        0.57940    0.16100    0.94490    1.000
    C20      C        0.45090    0.05400    0.04010    1.000
    H13      H        0.41890    0.02790    0.06380    1.000
    C21      C        0.40990    0.07480    0.92220    1.000
    C22      C        0.45940    0.11400    0.88600    1.000
    H14      H        0.43220    0.12610    0.80620    1.000
    N3       N        0.31860    0.05820    0.83170    1.000
    H15      H        0.30770    0.06380    0.75850    1.000
    C23      C        0.24630    0.03470    0.84480    1.000
    O11      O        0.08020    0.01930    0.73030    1.000
    O12      O        0.24780    0.02090    0.94170    1.000
    C24      C        0.15530    0.02780    0.72140    1.000
    O13      O        0.16730    0.03130    0.62930    1.000
    Ca2      Ca       0.41691    0.50424    0.57367    1.000
    S3       S        0.69910    0.14370    0.18600    1.000
    O14      O        0.75640    0.09730    0.26210    1.000
    O15      O        0.73660    0.17820    0.11980    1.000
    O16      O        0.52390    0.34910    0.61950    1.000
    O17      O        0.60440    0.39070    0.41260    1.000
    O18      O        0.52480    0.43690    0.54160    1.000
    C25      C        0.58260    0.35870    0.47420    1.000
    N4       N        0.58930    0.30090    0.47810    1.000
    H16      H        0.57400    0.28420    0.52760    1.000
    C26      C        0.63750    0.20710    0.44600    1.000
    H17      H        0.63190    0.19420    0.51270    1.000
    C27      C        0.61870    0.26460    0.41030    1.000
    C28      C        0.66450    0.16960    0.38060    1.000
    H18      H        0.67750    0.13170    0.40360    1.000
    C29      C        0.53980    0.38380    0.55320    1.000
    C30      C        0.67140    0.18990    0.28070    1.000
    C31      C        0.62720    0.28450    0.31020    1.000
    H19      H        0.61560    0.32240    0.28760    1.000
    C32      C        0.65330    0.24640    0.24410    1.000
    H20      H        0.65840    0.25880    0.17690    1.000
    S4       S        0.70280    0.12990    0.22400    1.000
    O19      O        0.74800    0.08150    0.30400    1.000
    O20      O        0.75100    0.15830    0.16300    1.000
    C33      C        0.95810    0.57380    0.37810    1.000
    H21      H        0.92870    0.56020    0.29930    1.000
    C34      C        0.91140    0.61400    0.41430    1.000
    C35      C        0.95210    0.63430    0.53200    1.000
    H22      H        0.92060    0.66100    0.55510    1.000
    C36      C        0.04910    0.55400    0.45990    1.000
    H23      H        0.08110    0.52790    0.43620    1.000
    C37      C        0.09010    0.57480    0.57780    1.000
    C38      C        0.04060    0.61400    0.61400    1.000
    H24      H        0.06780    0.62610    0.69380    1.000
    N5       N        0.18140    0.55820    0.66830    1.000
    H25      H        0.19230    0.56380    0.74150    1.000
    C39      C        0.25370    0.53470    0.65520    1.000
    O21      O        0.41980    0.51930    0.76970    1.000
    O22      O        0.25220    0.52090    0.55830    1.000
    C40      C        0.34470    0.52780    0.77860    1.000
    O23      O        0.33270    0.53130    0.87070    1.000
    Ca3      Ca       0.08309    0.00424    0.92633    1.000
    S5       S        0.80090    0.64370    0.31400    1.000
    O24      O        0.74360    0.59730    0.23790    1.000
    O25      O        0.76340    0.67820    0.38020    1.000
    O26      O        0.97610    0.84910    0.88050    1.000
    O27      O        0.89560    0.89070    0.08740    1.000
    O28      O        0.97520    0.93690    0.95840    1.000
    C41      C        0.91740    0.85870    0.02580    1.000
    N6       N        0.91070    0.80090    0.02190    1.000
    H26      H        0.92600    0.78420    0.97240    1.000
    C42      C        0.86250    0.70710    0.05400    1.000
    H27      H        0.86810    0.69420    0.98730    1.000
    C43      C        0.88130    0.76460    0.08970    1.000
    C44      C        0.83550    0.66960    0.11940    1.000
    H28      H        0.82250    0.63170    0.09640    1.000
    C45      C        0.96020    0.88380    0.94680    1.000
    C46      C        0.82860    0.68990    0.21930    1.000
    C47      C        0.87280    0.78450    0.18980    1.000
    H29      H        0.88440    0.82240    0.21240    1.000
    C48      C        0.84670    0.74640    0.25590    1.000
    H30      H        0.84160    0.75880    0.32310    1.000
    S6       S        0.79720    0.62990    0.27600    1.000
    O29      O        0.75200    0.58150    0.19600    1.000
    O30      O        0.74900    0.65830    0.33700    1.000
    C49      C        0.45810    0.07380    0.37810    1.000
    H31      H        0.42870    0.06020    0.29930    1.000
    C50      C        0.41140    0.11400    0.41430    1.000
    C51      C        0.45210    0.13430    0.53200    1.000
    H32      H        0.42060    0.16100    0.55510    1.000
    C52      C        0.54910    0.05400    0.45990    1.000
    H33      H        0.58110    0.02790    0.43620    1.000
    C53      C        0.59010    0.07480    0.57780    1.000
    C54      C        0.54060    0.11400    0.61400    1.000
    H34      H        0.56780    0.12610    0.69380    1.000
    N7       N        0.68140    0.05820    0.66830    1.000
    H35      H        0.69230    0.06380    0.74150    1.000
    C55      C        0.75370    0.03470    0.65520    1.000
    O31      O        0.91980    0.01930    0.76970    1.000
    O32      O        0.75220    0.02090    0.55830    1.000
    C56      C        0.84470    0.02780    0.77860    1.000
    O33      O        0.83270    0.03130    0.87070    1.000
    Ca4      Ca       0.58309    0.50424    0.92633    1.000
    S7       S        0.30090    0.14370    0.31400    1.000
    O34      O        0.24360    0.09730    0.23790    1.000
    O35      O        0.26340    0.17820    0.38020    1.000
    O36      O        0.47610    0.34910    0.88050    1.000
    O37      O        0.39560    0.39070    0.08740    1.000
    O38      O        0.47520    0.43690    0.95840    1.000
    C57      C        0.41740    0.35870    0.02580    1.000
    N8       N        0.41070    0.30090    0.02190    1.000
    H36      H        0.42600    0.28420    0.97240    1.000
    C58      C        0.36250    0.20710    0.05400    1.000
    H37      H        0.36810    0.19420    0.98730    1.000
    C59      C        0.38130    0.26460    0.08970    1.000
    C60      C        0.33550    0.16960    0.11940    1.000
    H38      H        0.32250    0.13170    0.09640    1.000
    C61      C        0.46020    0.38380    0.94680    1.000
    C62      C        0.32860    0.18990    0.21930    1.000
    C63      C        0.37280    0.28450    0.18980    1.000
    H39      H        0.38440    0.32240    0.21240    1.000
    C64      C        0.34670    0.24640    0.25590    1.000
    H40      H        0.34160    0.25880    0.32310    1.000
    S8       S        0.29720    0.12990    0.27600    1.000
    O39      O        0.25200    0.08150    0.19600    1.000
    O40      O        0.24900    0.15830    0.33700    1.000
    C65      C        0.95810    0.42620    0.87810    1.000
    H41      H        0.92870    0.43980    0.79930    1.000
    C66      C        0.91140    0.38600    0.91430    1.000
    C67      C        0.95210    0.36570    0.03200    1.000
    H42      H        0.92060    0.33900    0.05510    1.000
    C68      C        0.04910    0.44600    0.95990    1.000
    H43      H        0.08110    0.47210    0.93620    1.000
    C69      C        0.09010    0.42520    0.07780    1.000
    C70      C        0.04060    0.38600    0.11400    1.000
    H44      H        0.06780    0.37390    0.19380    1.000
    N9       N        0.18140    0.44180    0.16830    1.000
    H45      H        0.19230    0.43620    0.24150    1.000
    C71      C        0.25370    0.46530    0.15520    1.000
    O41      O        0.41980    0.48070    0.26970    1.000
    O42      O        0.25220    0.47910    0.05830    1.000
    C72      C        0.34470    0.47220    0.27860    1.000
    O43      O        0.33270    0.46870    0.37070    1.000
    Ca5      Ca       0.08309    0.99576    0.42633    1.000
    S9       S        0.80090    0.35630    0.81400    1.000
    O44      O        0.74360    0.40270    0.73790    1.000
    O45      O        0.76340    0.32180    0.88020    1.000
    O46      O        0.97610    0.15090    0.38050    1.000
    O47      O        0.89560    0.10930    0.58740    1.000
    O48      O        0.97520    0.06310    0.45840    1.000
    C73      C        0.91740    0.14130    0.52580    1.000
    N10      N        0.91070    0.19910    0.52190    1.000
    H46      H        0.92600    0.21580    0.47240    1.000
    C74      C        0.86250    0.29290    0.55400    1.000
    H47      H        0.86810    0.30580    0.48730    1.000
    C75      C        0.88130    0.23540    0.58970    1.000
    C76      C        0.83550    0.33040    0.61940    1.000
    H48      H        0.82250    0.36830    0.59640    1.000
    C77      C        0.96020    0.11620    0.44680    1.000
    C78      C        0.82860    0.31010    0.71930    1.000
    C79      C        0.87280    0.21550    0.68980    1.000
    H49      H        0.88440    0.17760    0.71240    1.000
    C80      C        0.84670    0.25360    0.75590    1.000
    H50      H        0.84160    0.24120    0.82310    1.000
    S10      S        0.79720    0.37010    0.77600    1.000
    O49      O        0.75200    0.41850    0.69600    1.000
    O50      O        0.74900    0.34170    0.83700    1.000
    C81      C        0.45810    0.92620    0.87810    1.000
    H51      H        0.42870    0.93980    0.79930    1.000
    C82      C        0.41140    0.88600    0.91430    1.000
    C83      C        0.45210    0.86570    0.03200    1.000
    H52      H        0.42060    0.83900    0.05510    1.000
    C84      C        0.54910    0.94600    0.95990    1.000
    H53      H        0.58110    0.97210    0.93620    1.000
    C85      C        0.59010    0.92520    0.07780    1.000
    C86      C        0.54060    0.88600    0.11400    1.000
    H54      H        0.56780    0.87390    0.19380    1.000
    N11      N        0.68140    0.94180    0.16830    1.000
    H55      H        0.69230    0.93620    0.24150    1.000
    C87      C        0.75370    0.96530    0.15520    1.000
    O51      O        0.91980    0.98070    0.26970    1.000
    O52      O        0.75220    0.97910    0.05830    1.000
    C88      C        0.84470    0.97220    0.27860    1.000
    O53      O        0.83270    0.96870    0.37070    1.000
    Ca6      Ca       0.58309    0.49576    0.42633    1.000
    S11      S        0.30090    0.85630    0.81400    1.000
    O54      O        0.24360    0.90270    0.73790    1.000
    O55      O        0.26340    0.82180    0.88020    1.000
    O56      O        0.47610    0.65090    0.38050    1.000
    O57      O        0.39560    0.60930    0.58740    1.000
    O58      O        0.47520    0.56310    0.45840    1.000
    C89      C        0.41740    0.64130    0.52580    1.000
    N12      N        0.41070    0.69910    0.52190    1.000
    H56      H        0.42600    0.71580    0.47240    1.000
    C90      C        0.36250    0.79290    0.55400    1.000
    H57      H        0.36810    0.80580    0.48730    1.000
    C91      C        0.38130    0.73540    0.58970    1.000
    C92      C        0.33550    0.83040    0.61940    1.000
    H58      H        0.32250    0.86830    0.59640    1.000
    C93      C        0.46020    0.61620    0.44680    1.000
    C94      C        0.32860    0.81010    0.71930    1.000
    C95      C        0.37280    0.71550    0.68980    1.000
    H59      H        0.38440    0.67760    0.71240    1.000
    C96      C        0.34670    0.75360    0.75590    1.000
    H60      H        0.34160    0.74120    0.82310    1.000
    S12      S        0.29720    0.87010    0.77600    1.000
    O59      O        0.25200    0.91850    0.69600    1.000
    O60      O        0.24900    0.84170    0.83700    1.000
    C97      C        0.04190    0.42620    0.62190    1.000
    H61      H        0.07130    0.43980    0.70070    1.000
    C98      C        0.08860    0.38600    0.58570    1.000
    C99      C        0.04790    0.36570    0.46800    1.000
    H62      H        0.07940    0.33900    0.44490    1.000
    C100     C        0.95090    0.44600    0.54010    1.000
    H63      H        0.91890    0.47210    0.56380    1.000
    C101     C        0.90990    0.42520    0.42220    1.000
    C102     C        0.95940    0.38600    0.38600    1.000
    H64      H        0.93220    0.37390    0.30620    1.000
    N13      N        0.81860    0.44180    0.33170    1.000
    H65      H        0.80770    0.43620    0.25850    1.000
    C103     C        0.74630    0.46530    0.34480    1.000
    O61      O        0.58020    0.48070    0.23030    1.000
    O62      O        0.74780    0.47910    0.44170    1.000
    C104     C        0.65530    0.47220    0.22140    1.000
    O63      O        0.66730    0.46870    0.12930    1.000
    Ca7      Ca       0.91691    0.99576    0.07367    1.000
    S13      S        0.19910    0.35630    0.68600    1.000
    O64      O        0.25640    0.40270    0.76210    1.000
    O65      O        0.23660    0.32180    0.61980    1.000
    O66      O        0.02390    0.15090    0.11950    1.000
    O67      O        0.10440    0.10930    0.91260    1.000
    O68      O        0.02480    0.06310    0.04160    1.000
    C105     C        0.08260    0.14130    0.97420    1.000
    N14      N        0.08930    0.19910    0.97810    1.000
    H66      H        0.07400    0.21580    0.02760    1.000
    C106     C        0.13750    0.29290    0.94600    1.000
    H67      H        0.13190    0.30580    0.01270    1.000
    C107     C        0.11870    0.23540    0.91030    1.000
    C108     C        0.16450    0.33040    0.88060    1.000
    H68      H        0.17750    0.36830    0.90360    1.000
    C109     C        0.03980    0.11620    0.05320    1.000
    C110     C        0.17140    0.31010    0.78070    1.000
    C111     C        0.12720    0.21550    0.81020    1.000
    H69      H        0.11560    0.17760    0.78760    1.000
    C112     C        0.15330    0.25360    0.74410    1.000
    H70      H        0.15840    0.24120    0.67690    1.000
    S14      S        0.20280    0.37010    0.72400    1.000
    O69      O        0.24800    0.41850    0.80400    1.000
    O70      O        0.25100    0.34170    0.66300    1.000
    C113     C        0.54190    0.92620    0.62190    1.000
    H71      H        0.57130    0.93980    0.70070    1.000
    C114     C        0.58860    0.88600    0.58570    1.000
    C115     C        0.54790    0.86570    0.46800    1.000
    H72      H        0.57940    0.83900    0.44490    1.000
    C116     C        0.45090    0.94600    0.54010    1.000
    H73      H        0.41890    0.97210    0.56380    1.000
    C117     C        0.40990    0.92520    0.42220    1.000
    C118     C        0.45940    0.88600    0.38600    1.000
    H74      H        0.43220    0.87390    0.30620    1.000
    N15      N        0.31860    0.94180    0.33170    1.000
    H75      H        0.30770    0.93620    0.25850    1.000
    C119     C        0.24630    0.96530    0.34480    1.000
    O71      O        0.08020    0.98070    0.23030    1.000
    O72      O        0.24780    0.97910    0.44170    1.000
    C120     C        0.15530    0.97220    0.22140    1.000
    O73      O        0.16730    0.96870    0.12930    1.000
    Ca8      Ca       0.41691    0.49576    0.07367    1.000
    S15      S        0.69910    0.85630    0.68600    1.000
    O74      O        0.75640    0.90270    0.76210    1.000
    O75      O        0.73660    0.82180    0.61980    1.000
    O76      O        0.52390    0.65090    0.11950    1.000
    O77      O        0.60440    0.60930    0.91260    1.000
    O78      O        0.52480    0.56310    0.04160    1.000
    C121     C        0.58260    0.64130    0.97420    1.000
    N16      N        0.58930    0.69910    0.97810    1.000
    H76      H        0.57400    0.71580    0.02760    1.000
    C122     C        0.63750    0.79290    0.94600    1.000
    H77      H        0.63190    0.80580    0.01270    1.000
    C123     C        0.61870    0.73540    0.91030    1.000
    C124     C        0.66450    0.83040    0.88060    1.000
    H78      H        0.67750    0.86830    0.90360    1.000
    C125     C        0.53980    0.61620    0.05320    1.000
    C126     C        0.67140    0.81010    0.78070    1.000
    C127     C        0.62720    0.71550    0.81020    1.000
    H79      H        0.61560    0.67760    0.78760    1.000
    C128     C        0.65330    0.75360    0.74410    1.000
    H80      H        0.65840    0.74120    0.67690    1.000
    S16      S        0.70280    0.87010    0.72400    1.000
    O79      O        0.74800    0.91850    0.80400    1.000
    O80      O        0.75100    0.84170    0.66300    1.000
