# CIF file generated by openbabel 3.1.0, see https://openbabel.org
data_I
_chemical_name_common 'CICYIX_clean'
_cell_length_a 5.3262
_cell_length_b 6.2885
_cell_length_c 8.1008
_cell_angle_alpha 97.733
_cell_angle_beta 105.055
_cell_angle_gamma 110.436
_space_group_name_H-M_alt 'P 1'
_space_group_name_Hall 'P 1'
loop_
    _symmetry_equiv_pos_as_xyz
    x,y,z
loop_
    _atom_site_label
    _atom_site_type_symbol
    _atom_site_fract_x
    _atom_site_fract_y
    _atom_site_fract_z
    _atom_site_occupancy
    Cd1      Cd       0.00000    0.50000    0.00000    1.000
    H1       H        0.33710    0.55730    0.42120    1.000
    H2       H        0.98520    0.03230    0.49850    1.000
    C1       C        0.49810    0.77490    0.65990    1.000
    C2       C        0.70570    0.68180    0.74930    1.000
    C3       C        0.32400    0.68360    0.49210    1.000
    C4       C        0.11720    0.77370    0.41740    1.000
    C5       C        0.11670    0.96420    0.53690    1.000
    C6       C        0.30170    0.04710    0.70330    1.000
    C7       C        0.31370    0.24380    0.83920    1.000
    O1       O        0.49500    0.95950    0.76690    1.000
    O2       O        0.86260    0.78480    0.90730    1.000
    O3       O        0.70250    0.50050    0.66400    1.000
    O4       O        0.95070    0.69100    0.26230    1.000
    O5       O        0.52370    0.33060    0.97730    1.000
    O6       O        0.10420    0.29570    0.79840    1.000
