# CIF file generated by openbabel 3.1.0, see https://openbabel.org
data_I
_chemical_name_common 'image0'
_cell_length_a 7.7266
_cell_length_b 7.9643
_cell_length_c 21.2205
_cell_angle_alpha 90.298
_cell_angle_beta 92.209
_cell_angle_gamma 90.805
_space_group_name_H-M_alt 'P 1'
_space_group_name_Hall 'P 1'
loop_
    _symmetry_equiv_pos_as_xyz
    x,y,z
loop_
    _atom_site_label
    _atom_site_type_symbol
    _atom_site_fract_x
    _atom_site_fract_y
    _atom_site_fract_z
    _atom_site_occupancy
    Mn1      Mn       0.61130    0.60285    0.60548    1.000
    Mn2      Mn       0.29072    0.84870    0.55381    1.000
    Mn3      Mn       0.20044    0.67359    0.82351    1.000
    Mn4      Mn       0.52334    0.42480    0.87939    1.000
    Mn5      Mn       0.59743    0.81821    0.97460    1.000
    P1       P        0.58733    0.74633    0.45622    1.000
    P2       P        0.26565    0.57450    0.97999    1.000
    P3       P        0.32310    0.05334    0.88056    1.000
    O1       O        0.50820    0.71260    0.52057    1.000
    O2       O        0.78560    0.70220    0.46353    1.000
    H1       H        0.79890    0.60350    0.45390    1.000
    O3       O        0.50010    0.63460    0.40543    1.000
    O4       O        0.57950    0.92800    0.43720    1.000
    O5       O        0.41030    0.65200    0.02233    1.000
    O6       O        0.32200    0.58410    0.91185    1.000
    O7       O        0.10740    0.69480    0.98683    1.000
    H2       H        0.01880    0.63860    0.99100    1.000
    O8       O        0.21470    0.39670    0.99782    1.000
    O9       O        0.41560    0.20100    0.85274    1.000
    O10      O        0.13130    0.11240    0.89545    1.000
    H3       H        0.11010    0.19980    0.87660    1.000
    O11      O        0.40440    0.00280    0.94464    1.000
    O12      O        0.30340    0.90850    0.83565    1.000
    O13      O        0.87110    0.51070    0.58961    1.000
    O14      O        0.13170    0.60510    0.56393    1.000
    O15      O        0.78500    0.82420    0.62137    1.000
    O16      O        0.04060    0.92020    0.59120    1.000
    O17      O        0.42250    0.53580    0.78878    1.000
    O18      O        0.60890    0.54300    0.71106    1.000
    O19      O        0.19960    0.72010    0.71954    1.000
    O20      O        0.39620    0.74570    0.64521    1.000
    O21      O        0.77380    0.35510    0.84932    1.000
    O22      O        0.03370    0.44920    0.82479    1.000
    O23      O        0.68110    0.67160    0.87848    1.000
    O24      O        0.94140    0.76250    0.84915    1.000
    C1       C        0.98260    0.62400    0.58308    1.000
    C2       C        0.93260    0.80610    0.60015    1.000
    C3       C        0.47120    0.57880    0.73479    1.000
    C4       C        0.34060    0.69150    0.69713    1.000
    C5       C        0.88400    0.46970    0.84257    1.000
    C6       C        0.82940    0.65110    0.85815    1.000
    Mn6      Mn       0.38870    0.39715    0.39452    1.000
    Mn7      Mn       0.70928    0.15130    0.44619    1.000
    Mn8      Mn       0.79956    0.32641    0.17649    1.000
    Mn9      Mn       0.47666    0.57520    0.12061    1.000
    Mn10     Mn       0.40257    0.18179    0.02540    1.000
    P4       P        0.41267    0.25367    0.54378    1.000
    P5       P        0.73435    0.42550    0.02001    1.000
    P6       P        0.67690    0.94666    0.11944    1.000
    O25      O        0.49180    0.28740    0.47943    1.000
    O26      O        0.21440    0.29780    0.53647    1.000
    H4       H        0.20110    0.39650    0.54610    1.000
    O27      O        0.49990    0.36540    0.59457    1.000
    O28      O        0.42050    0.07200    0.56280    1.000
    O29      O        0.58970    0.34800    0.97767    1.000
    O30      O        0.67800    0.41590    0.08815    1.000
    O31      O        0.89260    0.30520    0.01317    1.000
    H5       H        0.98120    0.36140    0.00900    1.000
    O32      O        0.78530    0.60330    0.00218    1.000
    O33      O        0.58440    0.79900    0.14726    1.000
    O34      O        0.86870    0.88760    0.10455    1.000
    H6       H        0.88990    0.80020    0.12340    1.000
    O35      O        0.59560    0.99720    0.05536    1.000
    O36      O        0.69660    0.09150    0.16435    1.000
    O37      O        0.12890    0.48930    0.41039    1.000
    O38      O        0.86830    0.39490    0.43607    1.000
    O39      O        0.21500    0.17580    0.37863    1.000
    O40      O        0.95940    0.07980    0.40880    1.000
    O41      O        0.57750    0.46420    0.21122    1.000
    O42      O        0.39110    0.45700    0.28894    1.000
    O43      O        0.80040    0.27990    0.28046    1.000
    O44      O        0.60380    0.25430    0.35479    1.000
    O45      O        0.22620    0.64490    0.15068    1.000
    O46      O        0.96630    0.55080    0.17521    1.000
    O47      O        0.31890    0.32840    0.12152    1.000
    O48      O        0.05860    0.23750    0.15085    1.000
    C7       C        0.01740    0.37600    0.41692    1.000
    C8       C        0.06740    0.19390    0.39985    1.000
    C9       C        0.52880    0.42120    0.26521    1.000
    C10      C        0.65940    0.30850    0.30287    1.000
    C11      C        0.11600    0.53030    0.15743    1.000
    C12      C        0.17060    0.34890    0.14185    1.000
