# CIF file generated by openbabel 3.1.0, see https://openbabel.org
data_I
_chemical_name_common 'image0'
_cell_length_a 15.3904
_cell_length_b 15.3904
_cell_length_c 9.8586
_cell_angle_alpha 90
_cell_angle_beta 90
_cell_angle_gamma 90
_space_group_name_H-M_alt 'P 1'
_space_group_name_Hall 'P 1'
loop_
    _symmetry_equiv_pos_as_xyz
    x,y,z
loop_
    _atom_site_label
    _atom_site_type_symbol
    _atom_site_fract_x
    _atom_site_fract_y
    _atom_site_fract_z
    _atom_site_occupancy
    C1       C        0.19480    0.68790    0.12080    1.000
    H1       H        0.17770    0.71270    0.20490    1.000
    C2       C        0.24440    0.61320    0.11970    1.000
    H2       H        0.26200    0.58770    0.20310    1.000
    O1       O        0.37360    0.46940    0.12230    1.000
    C3       C        0.80520    0.31210    0.12080    1.000
    H3       H        0.82230    0.28730    0.20490    1.000
    C4       C        0.75560    0.38680    0.11970    1.000
    H4       H        0.73800    0.41230    0.20310    1.000
    O2       O        0.62640    0.53060    0.12230    1.000
    C5       C        0.31210    0.19480    0.12080    1.000
    H5       H        0.28730    0.17770    0.20490    1.000
    C6       C        0.38680    0.24440    0.11970    1.000
    H6       H        0.41230    0.26200    0.20310    1.000
    O3       O        0.53060    0.37360    0.12230    1.000
    C7       C        0.68790    0.80520    0.12080    1.000
    H7       H        0.71270    0.82230    0.20490    1.000
    C8       C        0.61320    0.75560    0.11970    1.000
    H8       H        0.58770    0.73800    0.20310    1.000
    O4       O        0.46940    0.62640    0.12230    1.000
    C9       C        0.80520    0.68790    0.37920    1.000
    H9       H        0.82230    0.71270    0.29510    1.000
    C10      C        0.75560    0.61320    0.38030    1.000
    H10      H        0.73800    0.58770    0.29690    1.000
    O5       O        0.62640    0.46940    0.37770    1.000
    C11      C        0.19480    0.31210    0.37920    1.000
    H11      H        0.17770    0.28730    0.29510    1.000
    C12      C        0.24440    0.38680    0.38030    1.000
    H12      H        0.26200    0.41230    0.29690    1.000
    O6       O        0.37360    0.53060    0.37770    1.000
    C13      C        0.68790    0.19480    0.37920    1.000
    H13      H        0.71270    0.17770    0.29510    1.000
    C14      C        0.61320    0.24440    0.38030    1.000
    H14      H        0.58770    0.26200    0.29690    1.000
    O7       O        0.46940    0.37360    0.37770    1.000
    C15      C        0.31210    0.80520    0.37920    1.000
    H15      H        0.28730    0.82230    0.29510    1.000
    C16      C        0.38680    0.75560    0.38030    1.000
    H16      H        0.41230    0.73800    0.29690    1.000
    O8       O        0.53060    0.62640    0.37770    1.000
    C17      C        0.80520    0.31210    0.87920    1.000
    H17      H        0.82230    0.28730    0.79510    1.000
    C18      C        0.75560    0.38680    0.88030    1.000
    H18      H        0.73800    0.41230    0.79690    1.000
    O9       O        0.62640    0.53060    0.87770    1.000
    C19      C        0.19480    0.68790    0.87920    1.000
    H19      H        0.17770    0.71270    0.79510    1.000
    C20      C        0.24440    0.61320    0.88030    1.000
    H20      H        0.26200    0.58770    0.79690    1.000
    O10      O        0.37360    0.46940    0.87770    1.000
    C21      C        0.68790    0.80520    0.87920    1.000
    H21      H        0.71270    0.82230    0.79510    1.000
    C22      C        0.61320    0.75560    0.88030    1.000
    H22      H        0.58770    0.73800    0.79690    1.000
    O11      O        0.46940    0.62640    0.87770    1.000
    C23      C        0.31210    0.19480    0.87920    1.000
    H23      H        0.28730    0.17770    0.79510    1.000
    C24      C        0.38680    0.24440    0.88030    1.000
    H24      H        0.41230    0.26200    0.79690    1.000
    O12      O        0.53060    0.37360    0.87770    1.000
    C25      C        0.19480    0.31210    0.62080    1.000
    H25      H        0.17770    0.28730    0.70490    1.000
    C26      C        0.24440    0.38680    0.61970    1.000
    H26      H        0.26200    0.41230    0.70310    1.000
    O13      O        0.37360    0.53060    0.62230    1.000
    C27      C        0.80520    0.68790    0.62080    1.000
    H27      H        0.82230    0.71270    0.70490    1.000
    C28      C        0.75560    0.61320    0.61970    1.000
    H28      H        0.73800    0.58770    0.70310    1.000
    O14      O        0.62640    0.46940    0.62230    1.000
    C29      C        0.31210    0.80520    0.62080    1.000
    H29      H        0.28730    0.82230    0.70490    1.000
    C30      C        0.38680    0.75560    0.61970    1.000
    H30      H        0.41230    0.73800    0.70310    1.000
    O15      O        0.53060    0.62640    0.62230    1.000
    C31      C        0.68790    0.19480    0.62080    1.000
    H31      H        0.71270    0.17770    0.70490    1.000
    C32      C        0.61320    0.24440    0.61970    1.000
    H32      H        0.58770    0.26200    0.70310    1.000
    O16      O        0.46940    0.37360    0.62230    1.000
    Sm1      Sm       0.50000    0.50000    0.25000    1.000
    Sm2      Sm       0.50000    0.50000    0.75000    1.000
    S1       S        0.32117    0.47399    0.00000    1.000
    O17      O        0.25300    0.41040    0.00000    1.000
    C33      C        0.26840    0.57550    0.00000    1.000
    C34      C        0.16970    0.72710    0.00000    1.000
    C35      C        0.25910    0.89450    0.00000    1.000
    H33      H        0.29990    0.84810    0.00000    1.000
    N1       N        0.13040    0.97000    0.00000    1.000
    C36      C        0.11710    0.80900    0.00000    1.000
    C37      C        0.16350    0.88670    0.00000    1.000
    C38      C        0.02740    0.80370    0.00000    1.000
    C39      C        0.27740    0.97990    0.00000    1.000
    H34      H        0.33390    0.00470    0.00000    1.000
    S2       S        0.67883    0.52601    0.00000    1.000
    O18      O        0.74700    0.58960    0.00000    1.000
    C40      C        0.73160    0.42450    0.00000    1.000
    C41      C        0.83030    0.27290    0.00000    1.000
    C42      C        0.74090    0.10550    0.00000    1.000
    H35      H        0.70010    0.15190    0.00000    1.000
    N2       N        0.86960    0.03000    0.00000    1.000
    C43      C        0.88290    0.19100    0.00000    1.000
    C44      C        0.83650    0.11330    0.00000    1.000
    C45      C        0.97260    0.19630    0.00000    1.000
    C46      C        0.72260    0.02010    0.00000    1.000
    H36      H        0.66610    0.99530    0.00000    1.000
    S3       S        0.52601    0.32117    0.00000    1.000
    O19      O        0.58960    0.25300    0.00000    1.000
    C47      C        0.42450    0.26840    0.00000    1.000
    C48      C        0.27290    0.16970    0.00000    1.000
    C49      C        0.10550    0.25910    0.00000    1.000
    H37      H        0.15190    0.29990    0.00000    1.000
    N3       N        0.03000    0.13040    0.00000    1.000
    C50      C        0.19100    0.11710    0.00000    1.000
    C51      C        0.11330    0.16350    0.00000    1.000
    C52      C        0.19630    0.02740    0.00000    1.000
    C53      C        0.02010    0.27740    0.00000    1.000
    H38      H        0.99530    0.33390    0.00000    1.000
    S4       S        0.47399    0.67883    0.00000    1.000
    O20      O        0.41040    0.74700    0.00000    1.000
    C54      C        0.57550    0.73160    0.00000    1.000
    C55      C        0.72710    0.83030    0.00000    1.000
    C56      C        0.89450    0.74090    0.00000    1.000
    H39      H        0.84810    0.70010    0.00000    1.000
    N4       N        0.97000    0.86960    0.00000    1.000
    C57      C        0.80900    0.88290    0.00000    1.000
    C58      C        0.88670    0.83650    0.00000    1.000
    C59      C        0.80370    0.97260    0.00000    1.000
    C60      C        0.97990    0.72260    0.00000    1.000
    H40      H        0.00470    0.66610    0.00000    1.000
    S5       S        0.67883    0.47399    0.50000    1.000
    O21      O        0.74700    0.41040    0.50000    1.000
    C61      C        0.73160    0.57550    0.50000    1.000
    C62      C        0.83030    0.72710    0.50000    1.000
    C63      C        0.74090    0.89450    0.50000    1.000
    H41      H        0.70010    0.84810    0.50000    1.000
    N5       N        0.86960    0.97000    0.50000    1.000
    C64      C        0.88290    0.80900    0.50000    1.000
    C65      C        0.83650    0.88670    0.50000    1.000
    C66      C        0.97260    0.80370    0.50000    1.000
    C67      C        0.72260    0.97990    0.50000    1.000
    H42      H        0.66610    0.00470    0.50000    1.000
    S6       S        0.32117    0.52601    0.50000    1.000
    O22      O        0.25300    0.58960    0.50000    1.000
    C68      C        0.26840    0.42450    0.50000    1.000
    C69      C        0.16970    0.27290    0.50000    1.000
    C70      C        0.25910    0.10550    0.50000    1.000
    H43      H        0.29990    0.15190    0.50000    1.000
    N6       N        0.13040    0.03000    0.50000    1.000
    C71      C        0.11710    0.19100    0.50000    1.000
    C72      C        0.16350    0.11330    0.50000    1.000
    C73      C        0.02740    0.19630    0.50000    1.000
    C74      C        0.27740    0.02010    0.50000    1.000
    H44      H        0.33390    0.99530    0.50000    1.000
    S7       S        0.47399    0.32117    0.50000    1.000
    O23      O        0.41040    0.25300    0.50000    1.000
    C75      C        0.57550    0.26840    0.50000    1.000
    C76      C        0.72710    0.16970    0.50000    1.000
    C77      C        0.89450    0.25910    0.50000    1.000
    H45      H        0.84810    0.29990    0.50000    1.000
    N7       N        0.97000    0.13040    0.50000    1.000
    C78      C        0.80900    0.11710    0.50000    1.000
    C79      C        0.88670    0.16350    0.50000    1.000
    C80      C        0.80370    0.02740    0.50000    1.000
    C81      C        0.97990    0.27740    0.50000    1.000
    H46      H        0.00470    0.33390    0.50000    1.000
    S8       S        0.52601    0.67883    0.50000    1.000
    O24      O        0.58960    0.74700    0.50000    1.000
    C82      C        0.42450    0.73160    0.50000    1.000
    C83      C        0.27290    0.83030    0.50000    1.000
    C84      C        0.10550    0.74090    0.50000    1.000
    H47      H        0.15190    0.70010    0.50000    1.000
    N8       N        0.03000    0.86960    0.50000    1.000
    C85      C        0.19100    0.88290    0.50000    1.000
    C86      C        0.11330    0.83650    0.50000    1.000
    C87      C        0.19630    0.97260    0.50000    1.000
    C88      C        0.02010    0.72260    0.50000    1.000
    H48      H        0.99530    0.66610    0.50000    1.000
    O25      O        0.00000    0.00000    0.25000    1.000
    O26      O        0.00000    0.00000    0.75000    1.000
    V1       V        0.00000    0.00000    0.08800    1.000
    V2       V        0.00000    0.00000    0.41200    1.000
    V3       V        0.00000    0.00000    0.91200    1.000
    V4       V        0.00000    0.00000    0.58800    1.000
