# CIF file generated by openbabel 3.1.0, see https://openbabel.org
data_I
_chemical_name_common 'SEYFAE_clean'
_cell_length_a 9.0085
_cell_length_b 9.0085
_cell_length_c 15.799
_cell_angle_alpha 90
_cell_angle_beta 90
_cell_angle_gamma 90
_space_group_name_H-M_alt 'P 1'
_space_group_name_Hall 'P 1'
loop_
    _symmetry_equiv_pos_as_xyz
    x,y,z
loop_
    _atom_site_label
    _atom_site_type_symbol
    _atom_site_fract_x
    _atom_site_fract_y
    _atom_site_fract_z
    _atom_site_occupancy
    Er1      Er       0.03212    0.38941    0.39568    1.000
    Er2      Er       0.46788    0.61059    0.89568    1.000
    Er3      Er       0.96788    0.88941    0.10432    1.000
    Er4      Er       0.53212    0.11059    0.60432    1.000
    P1       P        0.12667    0.06673    0.29404    1.000
    P2       P        0.37333    0.93327    0.79404    1.000
    P3       P        0.87333    0.56673    0.20596    1.000
    P4       P        0.62667    0.43327    0.70596    1.000
    H1       H        0.14290    0.25030    0.18970    1.000
    H2       H        0.29940    0.17680    0.20300    1.000
    H3       H        0.44060    0.22020    0.31340    1.000
    H4       H        0.46020    0.38880    0.33440    1.000
    H5       H        0.37770    0.48020    0.21720    1.000
    H6       H        0.20700    0.48740    0.19700    1.000
    H7       H        0.26910    0.90390    0.32300    1.000
    H8       H        0.35710    0.74970    0.68970    1.000
    H9       H        0.20060    0.82320    0.70300    1.000
    H10      H        0.05940    0.77980    0.81340    1.000
    H11      H        0.03980    0.61120    0.83440    1.000
    H12      H        0.12230    0.51980    0.71720    1.000
    H13      H        0.29300    0.51260    0.69700    1.000
    H14      H        0.23090    0.09610    0.82300    1.000
    H15      H        0.85710    0.75030    0.31030    1.000
    H16      H        0.70060    0.67680    0.29700    1.000
    H17      H        0.55940    0.72020    0.18660    1.000
    H18      H        0.53980    0.88880    0.16560    1.000
    H19      H        0.62230    0.98020    0.28280    1.000
    H20      H        0.79300    0.98740    0.30300    1.000
    H21      H        0.73090    0.40390    0.17700    1.000
    H22      H        0.64290    0.24970    0.81030    1.000
    H23      H        0.79940    0.32320    0.79700    1.000
    H24      H        0.94060    0.27980    0.68660    1.000
    H25      H        0.96020    0.11120    0.66560    1.000
    H26      H        0.87770    0.01980    0.78280    1.000
    H27      H        0.70700    0.01260    0.80300    1.000
    H28      H        0.76910    0.59610    0.67700    1.000
    C1       C        0.21240    0.21470    0.23200    1.000
    C2       C        0.39250    0.30540    0.33910    1.000
    C3       C        0.36800    0.27300    0.43120    1.000
    C4       C        0.27940    0.48000    0.24220    1.000
    C5       C        0.26310    0.61300    0.30240    1.000
    C6       C        0.28760    0.78530    0.73200    1.000
    C7       C        0.10750    0.69460    0.83910    1.000
    C8       C        0.13200    0.72700    0.93120    1.000
    C9       C        0.22060    0.52000    0.74220    1.000
    C10      C        0.23690    0.38700    0.80240    1.000
    C11      C        0.78760    0.71470    0.26800    1.000
    C12      C        0.60750    0.80540    0.16090    1.000
    C13      C        0.63200    0.77300    0.06880    1.000
    C14      C        0.72060    0.98000    0.25780    1.000
    C15      C        0.73690    0.11300    0.19760    1.000
    C16      C        0.71240    0.28530    0.76800    1.000
    C17      C        0.89250    0.19460    0.66090    1.000
    C18      C        0.86800    0.22700    0.56880    1.000
    C19      C        0.77940    0.02000    0.75780    1.000
    C20      C        0.76310    0.88700    0.69760    1.000
    N1       N        0.25620    0.34010    0.28980    1.000
    N2       N        0.24380    0.65990    0.78980    1.000
    N3       N        0.74380    0.84010    0.21020    1.000
    N4       N        0.75620    0.15990    0.71020    1.000
    O1       O        0.24500    0.31360    0.46530    1.000
    O2       O        0.46920    0.20750    0.47110    1.000
    O3       O        0.31610    0.73740    0.27620    1.000
    O4       O        0.18930    0.59660    0.37010    1.000
    O5       O        0.24880    0.98250    0.34650    1.000
    O6       O        0.05070    0.96280    0.23330    1.000
    O7       O        0.02570    0.14370    0.35540    1.000
    O8       O        0.25500    0.68640    0.96530    1.000
    O9       O        0.03080    0.79250    0.97110    1.000
    O10      O        0.18390    0.26260    0.77620    1.000
    O11      O        0.31070    0.40340    0.87010    1.000
    O12      O        0.25120    0.01750    0.84650    1.000
    O13      O        0.44930    0.03720    0.73330    1.000
    O14      O        0.47430    0.85630    0.85540    1.000
    O15      O        0.75500    0.81360    0.03470    1.000
    O16      O        0.53080    0.70750    0.02890    1.000
    O17      O        0.68390    0.23740    0.22380    1.000
    O18      O        0.81070    0.09660    0.12990    1.000
    O19      O        0.75120    0.48250    0.15350    1.000
    O20      O        0.94930    0.46280    0.26670    1.000
    O21      O        0.97430    0.64370    0.14460    1.000
    O22      O        0.74500    0.18640    0.53470    1.000
    O23      O        0.96920    0.29250    0.52890    1.000
    O24      O        0.81610    0.76260    0.72380    1.000
    O25      O        0.68930    0.90340    0.62990    1.000
    O26      O        0.74880    0.51750    0.65350    1.000
    O27      O        0.55070    0.53720    0.76670    1.000
    O28      O        0.52570    0.35630    0.64460    1.000
