# CIF file generated by openbabel 3.1.0, see https://openbabel.org
data_I
_chemical_name_common 'image0'
_cell_length_a 21.5599
_cell_length_b 21.5599
_cell_length_c 12.8974
_cell_angle_alpha 90
_cell_angle_beta 90
_cell_angle_gamma 90
_space_group_name_H-M_alt 'P 1'
_space_group_name_Hall 'P 1'
loop_
    _symmetry_equiv_pos_as_xyz
    x,y,z
loop_
    _atom_site_label
    _atom_site_type_symbol
    _atom_site_fract_x
    _atom_site_fract_y
    _atom_site_fract_z
    _atom_site_occupancy
    Cu1      Cu       0.05811    0.31312    0.68583    1.000
    O1       O        0.14609    0.26223    0.56017    1.000
    O2       O        0.05301    0.30176    0.53150    1.000
    O3       O        0.09447    0.39403    0.66560    1.000
    N1       N        0.16340    0.22915    0.36510    1.000
    H1       H        0.16320    0.19360    0.32420    1.000
    N2       N        0.09806    0.31816    0.82590    1.000
    H2       H        0.12130    0.28200    0.83240    1.000
    C1       C        0.09945    0.27202    0.50220    1.000
    C2       C        0.09806    0.24310    0.39580    1.000
    H3       H        0.08010    0.27360    0.34550    1.000
    C3       C        0.05780    0.18580    0.39810    1.000
    H4       H        0.08450    0.15050    0.41890    1.000
    H5       H        0.02680    0.19150    0.45400    1.000
    C4       C        0.02350    0.16670    0.30270    1.000
    H6       H        0.05660    0.15180    0.25450    1.000
    C5       C        0.99110    0.21400    0.24420    1.000
    H7       H        0.01860    0.24960    0.23360    1.000
    H8       H        0.95420    0.22730    0.28270    1.000
    H9       H        0.97860    0.19710    0.17680    1.000
    C6       C        0.98240    0.11100    0.31830    1.000
    H10      H        0.00490    0.07930    0.35760    1.000
    H11      H        0.97030    0.09410    0.25060    1.000
    H12      H        0.94510    0.12330    0.35670    1.000
    C7       C        0.19145    0.28040    0.30380    1.000
    H13      H        0.23540    0.27030    0.28920    1.000
    H14      H        0.19050    0.31890    0.34540    1.000
    C8       C        0.15772    0.29140    0.20170    1.000
    C9       C        0.15370    0.24610    0.12750    1.000
    H15      H        0.17430    0.20770    0.13880    1.000
    C10      C        0.12110    0.25440    0.03810    1.000
    H16      H        0.11920    0.22170    0.98890    1.000
    C11      C        0.09084    0.30936    0.01770    1.000
    C12      C        0.09580    0.35600    0.09220    1.000
    H17      H        0.07610    0.39480    0.08050    1.000
    C13      C        0.12860    0.34690    0.18170    1.000
    H18      H        0.13120    0.37950    0.23110    1.000
    C14      C        0.12940    0.41435    0.73700    1.000
    C15      C        0.14377    0.36950    0.82590    1.000
    H19      H        0.14120    0.39230    0.89340    1.000
    C16      C        0.20985    0.34292    0.81260    1.000
    H20      H        0.21270    0.30390    0.85280    1.000
    H21      H        0.21580    0.33220    0.73860    1.000
    C17      C        0.26240    0.38510    0.84570    1.000
    H22      H        0.25760    0.42520    0.80780    1.000
    C18      C        0.26260    0.39930    0.95960    1.000
    H23      H        0.29770    0.42640    0.97590    1.000
    H24      H        0.26640    0.36050    0.99890    1.000
    H25      H        0.22380    0.42010    0.97840    1.000
    C19      C        0.32330    0.35630    0.81210    1.000
    H26      H        0.35770    0.38330    0.83320    1.000
    H27      H        0.32360    0.35160    0.73650    1.000
    H28      H        0.32800    0.31560    0.84470    1.000
    C20      C        0.05640    0.31920    0.91740    1.000
    H29      H        0.02470    0.28640    0.90970    1.000
    H30      H        0.03470    0.35960    0.92010    1.000
    O4       O        0.15384    0.46520    0.73800    1.000
    H31      H        0.07360    0.15830    0.34260    1.000
    H32      H        0.06720    0.16470    0.46450    1.000
    C21      C        0.99840    0.18540    0.38940    1.000
    H33      H        0.98260    0.20640    0.45340    1.000
    C22      C        0.96970    0.22330    0.29500    1.000
    H34      H        0.92450    0.22500    0.30260    1.000
    H35      H        0.98040    0.20280    0.22990    1.000
    H36      H        0.98650    0.26550    0.29530    1.000
    C23      C        0.97210    0.11460    0.39500    1.000
    H37      H        0.92660    0.11520    0.39380    1.000
    H38      H        0.98620    0.09500    0.45950    1.000
    H39      H        0.98750    0.09090    0.33560    1.000
    Cu2      Cu       0.94189    0.68688    0.68583    1.000
    O5       O        0.85391    0.73777    0.56017    1.000
    O6       O        0.94699    0.69824    0.53150    1.000
    O7       O        0.90553    0.60597    0.66560    1.000
    N3       N        0.83660    0.77085    0.36510    1.000
    H40      H        0.83680    0.80640    0.32420    1.000
    N4       N        0.90194    0.68184    0.82590    1.000
    H41      H        0.87870    0.71800    0.83240    1.000
    C24      C        0.90055    0.72798    0.50220    1.000
    C25      C        0.90194    0.75690    0.39580    1.000
    H42      H        0.91990    0.72640    0.34550    1.000
    C26      C        0.94220    0.81420    0.39810    1.000
    H43      H        0.91550    0.84950    0.41890    1.000
    H44      H        0.97320    0.80850    0.45400    1.000
    C27      C        0.97650    0.83330    0.30270    1.000
    H45      H        0.94340    0.84820    0.25450    1.000
    C28      C        0.00890    0.78600    0.24420    1.000
    H46      H        0.98140    0.75040    0.23360    1.000
    H47      H        0.04580    0.77270    0.28270    1.000
    H48      H        0.02140    0.80290    0.17680    1.000
    C29      C        0.01760    0.88900    0.31830    1.000
    H49      H        0.99510    0.92070    0.35760    1.000
    H50      H        0.02970    0.90590    0.25060    1.000
    H51      H        0.05490    0.87670    0.35670    1.000
    C30      C        0.80855    0.71960    0.30380    1.000
    H52      H        0.76460    0.72970    0.28920    1.000
    H53      H        0.80950    0.68110    0.34540    1.000
    C31      C        0.84228    0.70860    0.20170    1.000
    C32      C        0.84630    0.75390    0.12750    1.000
    H54      H        0.82570    0.79230    0.13880    1.000
    C33      C        0.87890    0.74560    0.03810    1.000
    H55      H        0.88080    0.77830    0.98890    1.000
    C34      C        0.90916    0.69064    0.01770    1.000
    C35      C        0.90420    0.64400    0.09220    1.000
    H56      H        0.92390    0.60520    0.08050    1.000
    C36      C        0.87140    0.65310    0.18170    1.000
    H57      H        0.86880    0.62050    0.23110    1.000
    C37      C        0.87060    0.58565    0.73700    1.000
    C38      C        0.85623    0.63050    0.82590    1.000
    H58      H        0.85880    0.60770    0.89340    1.000
    C39      C        0.79015    0.65708    0.81260    1.000
    H59      H        0.78730    0.69610    0.85280    1.000
    H60      H        0.78420    0.66780    0.73860    1.000
    C40      C        0.73760    0.61490    0.84570    1.000
    H61      H        0.74240    0.57480    0.80780    1.000
    C41      C        0.73740    0.60070    0.95960    1.000
    H62      H        0.70230    0.57360    0.97590    1.000
    H63      H        0.73360    0.63950    0.99890    1.000
    H64      H        0.77620    0.57990    0.97840    1.000
    C42      C        0.67670    0.64370    0.81210    1.000
    H65      H        0.64230    0.61670    0.83320    1.000
    H66      H        0.67640    0.64840    0.73650    1.000
    H67      H        0.67200    0.68440    0.84470    1.000
    C43      C        0.94360    0.68080    0.91740    1.000
    H68      H        0.97530    0.71360    0.90970    1.000
    H69      H        0.96530    0.64040    0.92010    1.000
    O8       O        0.84616    0.53480    0.73800    1.000
    H70      H        0.92640    0.84170    0.34260    1.000
    H71      H        0.93280    0.83530    0.46450    1.000
    C44      C        0.00160    0.81460    0.38940    1.000
    H72      H        0.01740    0.79360    0.45340    1.000
    C45      C        0.03030    0.77670    0.29500    1.000
    H73      H        0.07550    0.77500    0.30260    1.000
    H74      H        0.01960    0.79720    0.22990    1.000
    H75      H        0.01350    0.73450    0.29530    1.000
    C46      C        0.02790    0.88540    0.39500    1.000
    H76      H        0.07340    0.88480    0.39380    1.000
    H77      H        0.01380    0.90500    0.45950    1.000
    H78      H        0.01250    0.90910    0.33560    1.000
    Cu3      Cu       0.18688    0.55811    0.68583    1.000
    O9       O        0.23777    0.64609    0.56017    1.000
    O10      O        0.19824    0.55301    0.53150    1.000
    O11      O        0.10597    0.59447    0.66560    1.000
    N5       N        0.27085    0.66340    0.36510    1.000
    H79      H        0.30640    0.66320    0.32420    1.000
    N6       N        0.18184    0.59806    0.82590    1.000
    H80      H        0.21800    0.62130    0.83240    1.000
    C47      C        0.22798    0.59945    0.50220    1.000
    C48      C        0.25690    0.59806    0.39580    1.000
    H81      H        0.22640    0.58010    0.34550    1.000
    C49      C        0.31420    0.55780    0.39810    1.000
    H82      H        0.34950    0.58450    0.41890    1.000
    H83      H        0.30850    0.52680    0.45400    1.000
    C50      C        0.33330    0.52350    0.30270    1.000
    H84      H        0.34820    0.55660    0.25450    1.000
    C51      C        0.28600    0.49110    0.24420    1.000
    H85      H        0.25040    0.51860    0.23360    1.000
    H86      H        0.27270    0.45420    0.28270    1.000
    H87      H        0.30290    0.47860    0.17680    1.000
    C52      C        0.38900    0.48240    0.31830    1.000
    H88      H        0.42070    0.50490    0.35760    1.000
    H89      H        0.40590    0.47030    0.25060    1.000
    H90      H        0.37670    0.44510    0.35670    1.000
    C53      C        0.21960    0.69145    0.30380    1.000
    H91      H        0.22970    0.73540    0.28920    1.000
    H92      H        0.18110    0.69050    0.34540    1.000
    C54      C        0.20860    0.65772    0.20170    1.000
    C55      C        0.25390    0.65370    0.12750    1.000
    H93      H        0.29230    0.67430    0.13880    1.000
    C56      C        0.24560    0.62110    0.03810    1.000
    H94      H        0.27830    0.61920    0.98890    1.000
    C57      C        0.19064    0.59084    0.01770    1.000
    C58      C        0.14400    0.59580    0.09220    1.000
    H95      H        0.10520    0.57610    0.08050    1.000
    C59      C        0.15310    0.62860    0.18170    1.000
    H96      H        0.12050    0.63120    0.23110    1.000
    C60      C        0.08565    0.62940    0.73700    1.000
    C61      C        0.13050    0.64377    0.82590    1.000
    H97      H        0.10770    0.64120    0.89340    1.000
    C62      C        0.15708    0.70985    0.81260    1.000
    H98      H        0.19610    0.71270    0.85280    1.000
    H99      H        0.16780    0.71580    0.73860    1.000
    C63      C        0.11490    0.76240    0.84570    1.000
    H100     H        0.07480    0.75760    0.80780    1.000
    C64      C        0.10070    0.76260    0.95960    1.000
    H101     H        0.07360    0.79770    0.97590    1.000
    H102     H        0.13950    0.76640    0.99890    1.000
    H103     H        0.07990    0.72380    0.97840    1.000
    C65      C        0.14370    0.82330    0.81210    1.000
    H104     H        0.11670    0.85770    0.83320    1.000
    H105     H        0.14840    0.82360    0.73650    1.000
    H106     H        0.18440    0.82800    0.84470    1.000
    C66      C        0.18080    0.55640    0.91740    1.000
    H107     H        0.21360    0.52470    0.90970    1.000
    H108     H        0.14040    0.53470    0.92010    1.000
    O12      O        0.03480    0.65384    0.73800    1.000
    H109     H        0.34170    0.57360    0.34260    1.000
    H110     H        0.33530    0.56720    0.46450    1.000
    C67      C        0.31460    0.49840    0.38940    1.000
    H111     H        0.29360    0.48260    0.45340    1.000
    C68      C        0.27670    0.46970    0.29500    1.000
    H112     H        0.27500    0.42450    0.30260    1.000
    H113     H        0.29720    0.48040    0.22990    1.000
    H114     H        0.23450    0.48650    0.29530    1.000
    C69      C        0.38540    0.47210    0.39500    1.000
    H115     H        0.38480    0.42660    0.39380    1.000
    H116     H        0.40500    0.48620    0.45950    1.000
    H117     H        0.40910    0.48750    0.33560    1.000
    Cu4      Cu       0.81312    0.44189    0.68583    1.000
    O13      O        0.76223    0.35391    0.56017    1.000
    O14      O        0.80176    0.44699    0.53150    1.000
    O15      O        0.89403    0.40553    0.66560    1.000
    N7       N        0.72915    0.33660    0.36510    1.000
    H118     H        0.69360    0.33680    0.32420    1.000
    N8       N        0.81816    0.40194    0.82590    1.000
    H119     H        0.78200    0.37870    0.83240    1.000
    C70      C        0.77202    0.40055    0.50220    1.000
    C71      C        0.74310    0.40194    0.39580    1.000
    H120     H        0.77360    0.41990    0.34550    1.000
    C72      C        0.68580    0.44220    0.39810    1.000
    H121     H        0.65050    0.41550    0.41890    1.000
    H122     H        0.69150    0.47320    0.45400    1.000
    C73      C        0.66670    0.47650    0.30270    1.000
    H123     H        0.65180    0.44340    0.25450    1.000
    C74      C        0.71400    0.50890    0.24420    1.000
    H124     H        0.74960    0.48140    0.23360    1.000
    H125     H        0.72730    0.54580    0.28270    1.000
    H126     H        0.69710    0.52140    0.17680    1.000
    C75      C        0.61100    0.51760    0.31830    1.000
    H127     H        0.57930    0.49510    0.35760    1.000
    H128     H        0.59410    0.52970    0.25060    1.000
    H129     H        0.62330    0.55490    0.35670    1.000
    C76      C        0.78040    0.30855    0.30380    1.000
    H130     H        0.77030    0.26460    0.28920    1.000
    H131     H        0.81890    0.30950    0.34540    1.000
    C77      C        0.79140    0.34228    0.20170    1.000
    C78      C        0.74610    0.34630    0.12750    1.000
    H132     H        0.70770    0.32570    0.13880    1.000
    C79      C        0.75440    0.37890    0.03810    1.000
    H133     H        0.72170    0.38080    0.98890    1.000
    C80      C        0.80936    0.40916    0.01770    1.000
    C81      C        0.85600    0.40420    0.09220    1.000
    H134     H        0.89480    0.42390    0.08050    1.000
    C82      C        0.84690    0.37140    0.18170    1.000
    H135     H        0.87950    0.36880    0.23110    1.000
    C83      C        0.91435    0.37060    0.73700    1.000
    C84      C        0.86950    0.35623    0.82590    1.000
    H136     H        0.89230    0.35880    0.89340    1.000
    C85      C        0.84292    0.29015    0.81260    1.000
    H137     H        0.80390    0.28730    0.85280    1.000
    H138     H        0.83220    0.28420    0.73860    1.000
    C86      C        0.88510    0.23760    0.84570    1.000
    H139     H        0.92520    0.24240    0.80780    1.000
    C87      C        0.89930    0.23740    0.95960    1.000
    H140     H        0.92640    0.20230    0.97590    1.000
    H141     H        0.86050    0.23360    0.99890    1.000
    H142     H        0.92010    0.27620    0.97840    1.000
    C88      C        0.85630    0.17670    0.81210    1.000
    H143     H        0.88330    0.14230    0.83320    1.000
    H144     H        0.85160    0.17640    0.73650    1.000
    H145     H        0.81560    0.17200    0.84470    1.000
    C89      C        0.81920    0.44360    0.91740    1.000
    H146     H        0.78640    0.47530    0.90970    1.000
    H147     H        0.85960    0.46530    0.92010    1.000
    O16      O        0.96520    0.34616    0.73800    1.000
    H148     H        0.65830    0.42640    0.34260    1.000
    H149     H        0.66470    0.43280    0.46450    1.000
    C90      C        0.68540    0.50160    0.38940    1.000
    H150     H        0.70640    0.51740    0.45340    1.000
    C91      C        0.72330    0.53030    0.29500    1.000
    H151     H        0.72500    0.57550    0.30260    1.000
    H152     H        0.70280    0.51960    0.22990    1.000
    H153     H        0.76550    0.51350    0.29530    1.000
    C92      C        0.61460    0.52790    0.39500    1.000
    H154     H        0.61520    0.57340    0.39380    1.000
    H155     H        0.59500    0.51380    0.45950    1.000
    H156     H        0.59090    0.51250    0.33560    1.000
    Cu5      Cu       0.44189    0.81312    0.31417    1.000
    O17      O        0.35391    0.76223    0.43983    1.000
    O18      O        0.44699    0.80176    0.46850    1.000
    O19      O        0.40553    0.89403    0.33440    1.000
    N9       N        0.33660    0.72915    0.63490    1.000
    H157     H        0.33680    0.69360    0.67580    1.000
    N10      N        0.40194    0.81816    0.17410    1.000
    H158     H        0.37870    0.78200    0.16760    1.000
    C93      C        0.40055    0.77202    0.49780    1.000
    C94      C        0.40194    0.74310    0.60420    1.000
    H159     H        0.41990    0.77360    0.65450    1.000
    C95      C        0.44220    0.68580    0.60190    1.000
    H160     H        0.41550    0.65050    0.58110    1.000
    H161     H        0.47320    0.69150    0.54600    1.000
    C96      C        0.47650    0.66670    0.69730    1.000
    H162     H        0.44340    0.65180    0.74550    1.000
    C97      C        0.50890    0.71400    0.75580    1.000
    H163     H        0.48140    0.74960    0.76640    1.000
    H164     H        0.54580    0.72730    0.71730    1.000
    H165     H        0.52140    0.69710    0.82320    1.000
    C98      C        0.51760    0.61100    0.68170    1.000
    H166     H        0.49510    0.57930    0.64240    1.000
    H167     H        0.52970    0.59410    0.74940    1.000
    H168     H        0.55490    0.62330    0.64330    1.000
    C99      C        0.30855    0.78040    0.69620    1.000
    H169     H        0.26460    0.77030    0.71080    1.000
    H170     H        0.30950    0.81890    0.65460    1.000
    C100     C        0.34228    0.79140    0.79830    1.000
    C101     C        0.34630    0.74610    0.87250    1.000
    H171     H        0.32570    0.70770    0.86120    1.000
    C102     C        0.37890    0.75440    0.96190    1.000
    H172     H        0.38080    0.72170    0.01110    1.000
    C103     C        0.40916    0.80936    0.98230    1.000
    C104     C        0.40420    0.85600    0.90780    1.000
    H173     H        0.42390    0.89480    0.91950    1.000
    C105     C        0.37140    0.84690    0.81830    1.000
    H174     H        0.36880    0.87950    0.76890    1.000
    C106     C        0.37060    0.91435    0.26300    1.000
    C107     C        0.35623    0.86950    0.17410    1.000
    H175     H        0.35880    0.89230    0.10660    1.000
    C108     C        0.29015    0.84292    0.18740    1.000
    H176     H        0.28730    0.80390    0.14720    1.000
    H177     H        0.28420    0.83220    0.26140    1.000
    C109     C        0.23760    0.88510    0.15430    1.000
    H178     H        0.24240    0.92520    0.19220    1.000
    C110     C        0.23740    0.89930    0.04040    1.000
    H179     H        0.20230    0.92640    0.02410    1.000
    H180     H        0.23360    0.86050    0.00110    1.000
    H181     H        0.27620    0.92010    0.02160    1.000
    C111     C        0.17670    0.85630    0.18790    1.000
    H182     H        0.14230    0.88330    0.16680    1.000
    H183     H        0.17640    0.85160    0.26350    1.000
    H184     H        0.17200    0.81560    0.15530    1.000
    C112     C        0.44360    0.81920    0.08260    1.000
    H185     H        0.47530    0.78640    0.09030    1.000
    H186     H        0.46530    0.85960    0.07990    1.000
    O20      O        0.34616    0.96520    0.26200    1.000
    H187     H        0.42640    0.65830    0.65740    1.000
    H188     H        0.43280    0.66470    0.53550    1.000
    C113     C        0.50160    0.68540    0.61060    1.000
    H189     H        0.51740    0.70640    0.54660    1.000
    C114     C        0.53030    0.72330    0.70500    1.000
    H190     H        0.57550    0.72500    0.69740    1.000
    H191     H        0.51960    0.70280    0.77010    1.000
    H192     H        0.51350    0.76550    0.70470    1.000
    C115     C        0.52790    0.61460    0.60500    1.000
    H193     H        0.57340    0.61520    0.60620    1.000
    H194     H        0.51380    0.59500    0.54050    1.000
    H195     H        0.51250    0.59090    0.66440    1.000
    Cu6      Cu       0.55811    0.18688    0.31417    1.000
    O21      O        0.64609    0.23777    0.43983    1.000
    O22      O        0.55301    0.19824    0.46850    1.000
    O23      O        0.59447    0.10597    0.33440    1.000
    N11      N        0.66340    0.27085    0.63490    1.000
    H196     H        0.66320    0.30640    0.67580    1.000
    N12      N        0.59806    0.18184    0.17410    1.000
    H197     H        0.62130    0.21800    0.16760    1.000
    C116     C        0.59945    0.22798    0.49780    1.000
    C117     C        0.59806    0.25690    0.60420    1.000
    H198     H        0.58010    0.22640    0.65450    1.000
    C118     C        0.55780    0.31420    0.60190    1.000
    H199     H        0.58450    0.34950    0.58110    1.000
    H200     H        0.52680    0.30850    0.54600    1.000
    C119     C        0.52350    0.33330    0.69730    1.000
    H201     H        0.55660    0.34820    0.74550    1.000
    C120     C        0.49110    0.28600    0.75580    1.000
    H202     H        0.51860    0.25040    0.76640    1.000
    H203     H        0.45420    0.27270    0.71730    1.000
    H204     H        0.47860    0.30290    0.82320    1.000
    C121     C        0.48240    0.38900    0.68170    1.000
    H205     H        0.50490    0.42070    0.64240    1.000
    H206     H        0.47030    0.40590    0.74940    1.000
    H207     H        0.44510    0.37670    0.64330    1.000
    C122     C        0.69145    0.21960    0.69620    1.000
    H208     H        0.73540    0.22970    0.71080    1.000
    H209     H        0.69050    0.18110    0.65460    1.000
    C123     C        0.65772    0.20860    0.79830    1.000
    C124     C        0.65370    0.25390    0.87250    1.000
    H210     H        0.67430    0.29230    0.86120    1.000
    C125     C        0.62110    0.24560    0.96190    1.000
    H211     H        0.61920    0.27830    0.01110    1.000
    C126     C        0.59084    0.19064    0.98230    1.000
    C127     C        0.59580    0.14400    0.90780    1.000
    H212     H        0.57610    0.10520    0.91950    1.000
    C128     C        0.62860    0.15310    0.81830    1.000
    H213     H        0.63120    0.12050    0.76890    1.000
    C129     C        0.62940    0.08565    0.26300    1.000
    C130     C        0.64377    0.13050    0.17410    1.000
    H214     H        0.64120    0.10770    0.10660    1.000
    C131     C        0.70985    0.15708    0.18740    1.000
    H215     H        0.71270    0.19610    0.14720    1.000
    H216     H        0.71580    0.16780    0.26140    1.000
    C132     C        0.76240    0.11490    0.15430    1.000
    H217     H        0.75760    0.07480    0.19220    1.000
    C133     C        0.76260    0.10070    0.04040    1.000
    H218     H        0.79770    0.07360    0.02410    1.000
    H219     H        0.76640    0.13950    0.00110    1.000
    H220     H        0.72380    0.07990    0.02160    1.000
    C134     C        0.82330    0.14370    0.18790    1.000
    H221     H        0.85770    0.11670    0.16680    1.000
    H222     H        0.82360    0.14840    0.26350    1.000
    H223     H        0.82800    0.18440    0.15530    1.000
    C135     C        0.55640    0.18080    0.08260    1.000
    H224     H        0.52470    0.21360    0.09030    1.000
    H225     H        0.53470    0.14040    0.07990    1.000
    O24      O        0.65384    0.03480    0.26200    1.000
    H226     H        0.57360    0.34170    0.65740    1.000
    H227     H        0.56720    0.33530    0.53550    1.000
    C136     C        0.49840    0.31460    0.61060    1.000
    H228     H        0.48260    0.29360    0.54660    1.000
    C137     C        0.46970    0.27670    0.70500    1.000
    H229     H        0.42450    0.27500    0.69740    1.000
    H230     H        0.48040    0.29720    0.77010    1.000
    H231     H        0.48650    0.23450    0.70470    1.000
    C138     C        0.47210    0.38540    0.60500    1.000
    H232     H        0.42660    0.38480    0.60620    1.000
    H233     H        0.48620    0.40500    0.54050    1.000
    H234     H        0.48750    0.40910    0.66440    1.000
    Cu7      Cu       0.31312    0.05811    0.31417    1.000
    O25      O        0.26223    0.14609    0.43983    1.000
    O26      O        0.30176    0.05301    0.46850    1.000
    O27      O        0.39403    0.09447    0.33440    1.000
    N13      N        0.22915    0.16340    0.63490    1.000
    H235     H        0.19360    0.16320    0.67580    1.000
    N14      N        0.31816    0.09806    0.17410    1.000
    H236     H        0.28200    0.12130    0.16760    1.000
    C139     C        0.27202    0.09945    0.49780    1.000
    C140     C        0.24310    0.09806    0.60420    1.000
    H237     H        0.27360    0.08010    0.65450    1.000
    C141     C        0.18580    0.05780    0.60190    1.000
    H238     H        0.15050    0.08450    0.58110    1.000
    H239     H        0.19150    0.02680    0.54600    1.000
    C142     C        0.16670    0.02350    0.69730    1.000
    H240     H        0.15180    0.05660    0.74550    1.000
    C143     C        0.21400    0.99110    0.75580    1.000
    H241     H        0.24960    0.01860    0.76640    1.000
    H242     H        0.22730    0.95420    0.71730    1.000
    H243     H        0.19710    0.97860    0.82320    1.000
    C144     C        0.11100    0.98240    0.68170    1.000
    H244     H        0.07930    0.00490    0.64240    1.000
    H245     H        0.09410    0.97030    0.74940    1.000
    H246     H        0.12330    0.94510    0.64330    1.000
    C145     C        0.28040    0.19145    0.69620    1.000
    H247     H        0.27030    0.23540    0.71080    1.000
    H248     H        0.31890    0.19050    0.65460    1.000
    C146     C        0.29140    0.15772    0.79830    1.000
    C147     C        0.24610    0.15370    0.87250    1.000
    H249     H        0.20770    0.17430    0.86120    1.000
    C148     C        0.25440    0.12110    0.96190    1.000
    H250     H        0.22170    0.11920    0.01110    1.000
    C149     C        0.30936    0.09084    0.98230    1.000
    C150     C        0.35600    0.09580    0.90780    1.000
    H251     H        0.39480    0.07610    0.91950    1.000
    C151     C        0.34690    0.12860    0.81830    1.000
    H252     H        0.37950    0.13120    0.76890    1.000
    C152     C        0.41435    0.12940    0.26300    1.000
    C153     C        0.36950    0.14377    0.17410    1.000
    H253     H        0.39230    0.14120    0.10660    1.000
    C154     C        0.34292    0.20985    0.18740    1.000
    H254     H        0.30390    0.21270    0.14720    1.000
    H255     H        0.33220    0.21580    0.26140    1.000
    C155     C        0.38510    0.26240    0.15430    1.000
    H256     H        0.42520    0.25760    0.19220    1.000
    C156     C        0.39930    0.26260    0.04040    1.000
    H257     H        0.42640    0.29770    0.02410    1.000
    H258     H        0.36050    0.26640    0.00110    1.000
    H259     H        0.42010    0.22380    0.02160    1.000
    C157     C        0.35630    0.32330    0.18790    1.000
    H260     H        0.38330    0.35770    0.16680    1.000
    H261     H        0.35160    0.32360    0.26350    1.000
    H262     H        0.31560    0.32800    0.15530    1.000
    C158     C        0.31920    0.05640    0.08260    1.000
    H263     H        0.28640    0.02470    0.09030    1.000
    H264     H        0.35960    0.03470    0.07990    1.000
    O28      O        0.46520    0.15384    0.26200    1.000
    H265     H        0.15830    0.07360    0.65740    1.000
    H266     H        0.16470    0.06720    0.53550    1.000
    C159     C        0.18540    0.99840    0.61060    1.000
    H267     H        0.20640    0.98260    0.54660    1.000
    C160     C        0.22330    0.96970    0.70500    1.000
    H268     H        0.22500    0.92450    0.69740    1.000
    H269     H        0.20280    0.98040    0.77010    1.000
    H270     H        0.26550    0.98650    0.70470    1.000
    C161     C        0.11460    0.97210    0.60500    1.000
    H271     H        0.11520    0.92660    0.60620    1.000
    H272     H        0.09500    0.98620    0.54050    1.000
    H273     H        0.09090    0.98750    0.66440    1.000
    Cu8      Cu       0.68688    0.94189    0.31417    1.000
    O29      O        0.73777    0.85391    0.43983    1.000
    O30      O        0.69824    0.94699    0.46850    1.000
    O31      O        0.60597    0.90553    0.33440    1.000
    N15      N        0.77085    0.83660    0.63490    1.000
    H274     H        0.80640    0.83680    0.67580    1.000
    N16      N        0.68184    0.90194    0.17410    1.000
    H275     H        0.71800    0.87870    0.16760    1.000
    C162     C        0.72798    0.90055    0.49780    1.000
    C163     C        0.75690    0.90194    0.60420    1.000
    H276     H        0.72640    0.91990    0.65450    1.000
    C164     C        0.81420    0.94220    0.60190    1.000
    H277     H        0.84950    0.91550    0.58110    1.000
    H278     H        0.80850    0.97320    0.54600    1.000
    C165     C        0.83330    0.97650    0.69730    1.000
    H279     H        0.84820    0.94340    0.74550    1.000
    C166     C        0.78600    0.00890    0.75580    1.000
    H280     H        0.75040    0.98140    0.76640    1.000
    H281     H        0.77270    0.04580    0.71730    1.000
    H282     H        0.80290    0.02140    0.82320    1.000
    C167     C        0.88900    0.01760    0.68170    1.000
    H283     H        0.92070    0.99510    0.64240    1.000
    H284     H        0.90590    0.02970    0.74940    1.000
    H285     H        0.87670    0.05490    0.64330    1.000
    C168     C        0.71960    0.80855    0.69620    1.000
    H286     H        0.72970    0.76460    0.71080    1.000
    H287     H        0.68110    0.80950    0.65460    1.000
    C169     C        0.70860    0.84228    0.79830    1.000
    C170     C        0.75390    0.84630    0.87250    1.000
    H288     H        0.79230    0.82570    0.86120    1.000
    C171     C        0.74560    0.87890    0.96190    1.000
    H289     H        0.77830    0.88080    0.01110    1.000
    C172     C        0.69064    0.90916    0.98230    1.000
    C173     C        0.64400    0.90420    0.90780    1.000
    H290     H        0.60520    0.92390    0.91950    1.000
    C174     C        0.65310    0.87140    0.81830    1.000
    H291     H        0.62050    0.86880    0.76890    1.000
    C175     C        0.58565    0.87060    0.26300    1.000
    C176     C        0.63050    0.85623    0.17410    1.000
    H292     H        0.60770    0.85880    0.10660    1.000
    C177     C        0.65708    0.79015    0.18740    1.000
    H293     H        0.69610    0.78730    0.14720    1.000
    H294     H        0.66780    0.78420    0.26140    1.000
    C178     C        0.61490    0.73760    0.15430    1.000
    H295     H        0.57480    0.74240    0.19220    1.000
    C179     C        0.60070    0.73740    0.04040    1.000
    H296     H        0.57360    0.70230    0.02410    1.000
    H297     H        0.63950    0.73360    0.00110    1.000
    H298     H        0.57990    0.77620    0.02160    1.000
    C180     C        0.64370    0.67670    0.18790    1.000
    H299     H        0.61670    0.64230    0.16680    1.000
    H300     H        0.64840    0.67640    0.26350    1.000
    H301     H        0.68440    0.67200    0.15530    1.000
    C181     C        0.68080    0.94360    0.08260    1.000
    H302     H        0.71360    0.97530    0.09030    1.000
    H303     H        0.64040    0.96530    0.07990    1.000
    O32      O        0.53480    0.84616    0.26200    1.000
    H304     H        0.84170    0.92640    0.65740    1.000
    H305     H        0.83530    0.93280    0.53550    1.000
    C182     C        0.81460    0.00160    0.61060    1.000
    H306     H        0.79360    0.01740    0.54660    1.000
    C183     C        0.77670    0.03030    0.70500    1.000
    H307     H        0.77500    0.07550    0.69740    1.000
    H308     H        0.79720    0.01960    0.77010    1.000
    H309     H        0.73450    0.01350    0.70470    1.000
    C184     C        0.88540    0.02790    0.60500    1.000
    H310     H        0.88480    0.07340    0.60620    1.000
    H311     H        0.90500    0.01380    0.54050    1.000
    H312     H        0.90910    0.01250    0.66440    1.000
    Cu9      Cu       0.20949    0.20949    0.50000    1.000
    Cu10     Cu       0.79051    0.79051    0.50000    1.000
    Cu11     Cu       0.29051    0.70949    0.50000    1.000
    Cu12     Cu       0.70949    0.29051    0.50000    1.000
