# CIF file generated by openbabel 3.1.0, see https://openbabel.org
data_I
_chemical_name_common 'image0'
_cell_length_a 8.9199
_cell_length_b 9.4566
_cell_length_c 10.414
_cell_angle_alpha 90
_cell_angle_beta 90
_cell_angle_gamma 90
_space_group_name_H-M_alt 'P 1'
_space_group_name_Hall 'P 1'
loop_
    _symmetry_equiv_pos_as_xyz
    x,y,z
loop_
    _atom_site_label
    _atom_site_type_symbol
    _atom_site_fract_x
    _atom_site_fract_y
    _atom_site_fract_z
    _atom_site_occupancy
    Co1      Co       0.79756    0.55381    0.27399    1.000
    O1       O        0.93130    0.39050    0.32960    1.000
    O2       O        0.04700    0.19020    0.30570    1.000
    O3       O        0.77850    0.48060    0.08460    1.000
    O4       O        0.64410    0.35310    0.94820    1.000
    N1       N        0.61360    0.39950    0.27900    1.000
    N2       N        0.38140    0.20850    0.24880    1.000
    C1       C        0.00480    0.30630    0.27700    1.000
    H1       H        0.03730    0.33530    0.19640    1.000
    C2       C        0.67560    0.39780    0.05820    1.000
    C3       C        0.58150    0.34510    0.17040    1.000
    C4       C        0.46150    0.25140    0.15050    1.000
    H2       H        0.43900    0.22000    0.06810    1.000
    C5       C        0.41180    0.26110    0.36470    1.000
    H3       H        0.35400    0.23280    0.43450    1.000
    C6       C        0.52770    0.35710    0.38400    1.000
    H4       H        0.54760    0.39250    0.46560    1.000
    Co2      Co       0.70244    0.44619    0.77399    1.000
    O5       O        0.56870    0.60950    0.82960    1.000
    O6       O        0.45300    0.80980    0.80570    1.000
    O7       O        0.72150    0.51940    0.58460    1.000
    O8       O        0.85590    0.64690    0.44820    1.000
    N3       N        0.88640    0.60050    0.77900    1.000
    N4       N        0.11860    0.79150    0.74880    1.000
    C7       C        0.49520    0.69370    0.77700    1.000
    H5       H        0.46270    0.66470    0.69640    1.000
    C8       C        0.82440    0.60220    0.55820    1.000
    C9       C        0.91850    0.65490    0.67040    1.000
    C10      C        0.03850    0.74860    0.65050    1.000
    H6       H        0.06100    0.78000    0.56810    1.000
    C11      C        0.08820    0.73890    0.86470    1.000
    H7       H        0.14600    0.76720    0.93450    1.000
    C12      C        0.97230    0.64290    0.88400    1.000
    H8       H        0.95240    0.60750    0.96560    1.000
    Co3      Co       0.20244    0.05381    0.22601    1.000
    O9       O        0.06870    0.89050    0.17040    1.000
    O10      O        0.95300    0.69020    0.19430    1.000
    O11      O        0.22150    0.98060    0.41540    1.000
    O12      O        0.35590    0.85310    0.55180    1.000
    N5       N        0.38640    0.89950    0.22100    1.000
    N6       N        0.61860    0.70850    0.25120    1.000
    C13      C        0.99520    0.80630    0.22300    1.000
    H9       H        0.96270    0.83530    0.30360    1.000
    C14      C        0.32440    0.89780    0.44180    1.000
    C15      C        0.41850    0.84510    0.32960    1.000
    C16      C        0.53850    0.75140    0.34950    1.000
    H10      H        0.56100    0.72000    0.43190    1.000
    C17      C        0.58820    0.76110    0.13530    1.000
    H11      H        0.64600    0.73280    0.06550    1.000
    C18      C        0.47230    0.85710    0.11600    1.000
    H12      H        0.45240    0.89250    0.03440    1.000
    Co4      Co       0.29756    0.94619    0.72601    1.000
    O13      O        0.43130    0.10950    0.67040    1.000
    O14      O        0.54700    0.30980    0.69430    1.000
    O15      O        0.27850    0.01940    0.91540    1.000
    O16      O        0.14410    0.14690    0.05180    1.000
    N7       N        0.11360    0.10050    0.72100    1.000
    N8       N        0.88140    0.29150    0.75120    1.000
    C19      C        0.50480    0.19370    0.72300    1.000
    H13      H        0.53730    0.16470    0.80360    1.000
    C20      C        0.17560    0.10220    0.94180    1.000
    C21      C        0.08150    0.15490    0.82960    1.000
    C22      C        0.96150    0.24860    0.84950    1.000
    H14      H        0.93900    0.28000    0.93190    1.000
    C23      C        0.91180    0.23890    0.63530    1.000
    H15      H        0.85400    0.26720    0.56550    1.000
    C24      C        0.02770    0.14290    0.61600    1.000
    H16      H        0.04760    0.10750    0.53440    1.000
