# CIF file generated by openbabel 3.1.0, see https://openbabel.org
data_I
_chemical_name_common 'image0'
_cell_length_a 21.9475
_cell_length_b 16.6741
_cell_length_c 25.5226
_cell_angle_alpha 90
_cell_angle_beta 115.119
_cell_angle_gamma 90
_space_group_name_H-M_alt 'P 1'
_space_group_name_Hall 'P 1'
loop_
    _symmetry_equiv_pos_as_xyz
    x,y,z
loop_
    _atom_site_label
    _atom_site_type_symbol
    _atom_site_fract_x
    _atom_site_fract_y
    _atom_site_fract_z
    _atom_site_occupancy
    Ag1      Ag       0.32170    0.74386    0.86643    1.000
    Ag2      Ag       0.84425    0.54332    0.36689    1.000
    C1       C        0.59750    0.52830    0.99890    1.000
    C2       C        0.62340    0.24400    0.50040    1.000
    C3       C        0.55970    0.19870    0.46800    1.000
    C4       C        0.77640    0.36150    0.00810    1.000
    H1       H        0.79690    0.36460    0.04830    1.000
    C5       C        0.50360    0.61500    0.99480    1.000
    H2       H        0.52330    0.61650    0.03500    1.000
    C6       C        0.79750    0.41640    0.50380    1.000
    H3       H        0.81950    0.41230    0.54390    1.000
    C7       C        0.53250    0.19040    0.40940    1.000
    H4       H        0.55350    0.21290    0.38800    1.000
    C8       C        0.68140    0.44780    0.00500    1.000
    C9       C        0.71980    0.34710    0.89050    1.000
    H5       H        0.70040    0.34250    0.85040    1.000
    C10      C        0.44370    0.65510    0.96280    1.000
    H6       H        0.42380    0.68330    0.98290    1.000
    C11      C        0.67900    0.54400    0.17940    1.000
    H7       H        0.63500    0.56180    0.15900    1.000
    C12      C        0.70960    0.27400    0.58580    1.000
    C13      C        0.53300    0.57270    0.96490    1.000
    C14      C        0.74270    0.26370    0.64920    1.000
    C15      C        0.73520    0.37910    0.47300    1.000
    C16      C        0.67990    0.49800    0.08570    1.000
    C17      C        0.71200    0.50760    0.15040    1.000
    C18      C        0.73580    0.43510    0.38720    1.000
    H8       H        0.71480    0.44120    0.34730    1.000
    C19      C        0.70380    0.39050    0.41380    1.000
    H9       H        0.66170    0.36840    0.39200    1.000
    C20      C        0.70460    0.32780    0.50310    1.000
    C21      C        0.71460    0.39900    0.97610    1.000
    C22      C        0.52560    0.16500    0.49780    1.000
    H10      H        0.54280    0.16900    0.53790    1.000
    C23      C        0.82520    0.45900    0.47340    1.000
    H11      H        0.86740    0.48170    0.49380    1.000
    C24      C        0.68560    0.38940    0.91670    1.000
    H12      H        0.64340    0.41110    0.89440    1.000
    C25      C        0.80650    0.31920    0.97790    1.000
    H13      H        0.84760    0.29430    0.99910    1.000
    C26      C        0.80620    0.49490    0.24080    1.000
    H14      H        0.85010    0.47720    0.26180    1.000
    C27      C        0.46690    0.12650    0.46730    1.000
    H15      H        0.44430    0.10450    0.48760    1.000
    C28      C        0.47300    0.14790    0.38200    1.000
    H16      H        0.45590    0.13980    0.34220    1.000
    C29      C        0.71110    0.55390    0.23840    1.000
    H17      H        0.68810    0.57850    0.25740    1.000
    C30      C        0.74560    0.20580    0.73550    1.000
    H18      H        0.72680    0.17100    0.75310    1.000
    C31      C        0.50150    0.57220    0.90530    1.000
    H19      H        0.51910    0.54250    0.88400    1.000
    C32      C        0.44380    0.61630    0.87780    1.000
    H20      H        0.42480    0.61880    0.83760    1.000
    C33      C        0.80200    0.30020    0.68280    1.000
    H21      H        0.82480    0.33080    0.66630    1.000
    C34      C        0.71450    0.21290    0.67650    1.000
    H22      H        0.67530    0.18440    0.65490    1.000
    C35      C        0.77770    0.48400    0.18160    1.000
    H23      H        0.80220    0.46140    0.16320    1.000
    C36      C        0.82770    0.29050    0.74260    1.000
    H24      H        0.86690    0.31820    0.76530    1.000
    N1       N        0.41320    0.65580    0.90550    1.000
    N2       N        0.77930    0.31290    0.92070    1.000
    N3       N        0.77530    0.52900    0.26990    1.000
    N4       N        0.62280    0.53720    0.05710    1.000
    N5       N        0.62520    0.48690    0.97110    1.000
    N6       N        0.71090    0.45020    0.06280    1.000
    N7       N        0.79550    0.46980    0.41660    1.000
    N8       N        0.43960    0.11820    0.41050    1.000
    N9       N        0.80080    0.24550    0.76920    1.000
    N10      N        0.73770    0.32290    0.56100    1.000
    N11      N        0.64760    0.29000    0.47060    1.000
    N12      N        0.65250    0.23370    0.55750    1.000
    Ag3      Ag       0.82170    0.24386    0.86643    1.000
    Ag4      Ag       0.34425    0.04332    0.36689    1.000
    C37      C        0.09750    0.02830    0.99890    1.000
    C38      C        0.12340    0.74400    0.50040    1.000
    C39      C        0.05970    0.69870    0.46800    1.000
    C40      C        0.27640    0.86150    0.00810    1.000
    H25      H        0.29690    0.86460    0.04830    1.000
    C41      C        0.00360    0.11500    0.99480    1.000
    H26      H        0.02330    0.11650    0.03500    1.000
    C42      C        0.29750    0.91640    0.50380    1.000
    H27      H        0.31950    0.91230    0.54390    1.000
    C43      C        0.03250    0.69040    0.40940    1.000
    H28      H        0.05350    0.71290    0.38800    1.000
    C44      C        0.18140    0.94780    0.00500    1.000
    C45      C        0.21980    0.84710    0.89050    1.000
    H29      H        0.20040    0.84250    0.85040    1.000
    C46      C        0.94370    0.15510    0.96280    1.000
    H30      H        0.92380    0.18330    0.98290    1.000
    C47      C        0.17900    0.04400    0.17940    1.000
    H31      H        0.13500    0.06180    0.15900    1.000
    C48      C        0.20960    0.77400    0.58580    1.000
    C49      C        0.03300    0.07270    0.96490    1.000
    C50      C        0.24270    0.76370    0.64920    1.000
    C51      C        0.23520    0.87910    0.47300    1.000
    C52      C        0.17990    0.99800    0.08570    1.000
    C53      C        0.21200    0.00760    0.15040    1.000
    C54      C        0.23580    0.93510    0.38720    1.000
    H32      H        0.21480    0.94120    0.34730    1.000
    C55      C        0.20380    0.89050    0.41380    1.000
    H33      H        0.16170    0.86840    0.39200    1.000
    C56      C        0.20460    0.82780    0.50310    1.000
    C57      C        0.21460    0.89900    0.97610    1.000
    C58      C        0.02560    0.66500    0.49780    1.000
    H34      H        0.04280    0.66900    0.53790    1.000
    C59      C        0.32520    0.95900    0.47340    1.000
    H35      H        0.36740    0.98170    0.49380    1.000
    C60      C        0.18560    0.88940    0.91670    1.000
    H36      H        0.14340    0.91110    0.89440    1.000
    C61      C        0.30650    0.81920    0.97790    1.000
    H37      H        0.34760    0.79430    0.99910    1.000
    C62      C        0.30620    0.99490    0.24080    1.000
    H38      H        0.35010    0.97720    0.26180    1.000
    C63      C        0.96690    0.62650    0.46730    1.000
    H39      H        0.94430    0.60450    0.48760    1.000
    C64      C        0.97300    0.64790    0.38200    1.000
    H40      H        0.95590    0.63980    0.34220    1.000
    C65      C        0.21110    0.05390    0.23840    1.000
    H41      H        0.18810    0.07850    0.25740    1.000
    C66      C        0.24560    0.70580    0.73550    1.000
    H42      H        0.22680    0.67100    0.75310    1.000
    C67      C        0.00150    0.07220    0.90530    1.000
    H43      H        0.01910    0.04250    0.88400    1.000
    C68      C        0.94380    0.11630    0.87780    1.000
    H44      H        0.92480    0.11880    0.83760    1.000
    C69      C        0.30200    0.80020    0.68280    1.000
    H45      H        0.32480    0.83080    0.66630    1.000
    C70      C        0.21450    0.71290    0.67650    1.000
    H46      H        0.17530    0.68440    0.65490    1.000
    C71      C        0.27770    0.98400    0.18160    1.000
    H47      H        0.30220    0.96140    0.16320    1.000
    C72      C        0.32770    0.79050    0.74260    1.000
    H48      H        0.36690    0.81820    0.76530    1.000
    N13      N        0.91320    0.15580    0.90550    1.000
    N14      N        0.27930    0.81290    0.92070    1.000
    N15      N        0.27530    0.02900    0.26990    1.000
    N16      N        0.12280    0.03720    0.05710    1.000
    N17      N        0.12520    0.98690    0.97110    1.000
    N18      N        0.21090    0.95020    0.06280    1.000
    N19      N        0.29550    0.96980    0.41660    1.000
    N20      N        0.93960    0.61820    0.41050    1.000
    N21      N        0.30080    0.74550    0.76920    1.000
    N22      N        0.23770    0.82290    0.56100    1.000
    N23      N        0.14760    0.79000    0.47060    1.000
    N24      N        0.15250    0.73370    0.55750    1.000
    Ag5      Ag       0.67830    0.74386    0.63357    1.000
    Ag6      Ag       0.15575    0.54332    0.13311    1.000
    C73      C        0.40250    0.52830    0.50110    1.000
    C74      C        0.37660    0.24400    0.99960    1.000
    C75      C        0.44030    0.19870    0.03200    1.000
    C76      C        0.22360    0.36150    0.49190    1.000
    H49      H        0.20310    0.36460    0.45170    1.000
    C77      C        0.49640    0.61500    0.50520    1.000
    H50      H        0.47670    0.61650    0.46500    1.000
    C78      C        0.20250    0.41640    0.99620    1.000
    H51      H        0.18050    0.41230    0.95610    1.000
    C79      C        0.46750    0.19040    0.09060    1.000
    H52      H        0.44650    0.21290    0.11200    1.000
    C80      C        0.31860    0.44780    0.49500    1.000
    C81      C        0.28020    0.34710    0.60950    1.000
    H53      H        0.29960    0.34250    0.64960    1.000
    C82      C        0.55630    0.65510    0.53720    1.000
    H54      H        0.57620    0.68330    0.51710    1.000
    C83      C        0.32100    0.54400    0.32060    1.000
    H55      H        0.36500    0.56180    0.34100    1.000
    C84      C        0.29040    0.27400    0.91420    1.000
    C85      C        0.46700    0.57270    0.53510    1.000
    C86      C        0.25730    0.26370    0.85080    1.000
    C87      C        0.26480    0.37910    0.02700    1.000
    C88      C        0.32010    0.49800    0.41430    1.000
    C89      C        0.28800    0.50760    0.34960    1.000
    C90      C        0.26420    0.43510    0.11280    1.000
    H56      H        0.28520    0.44120    0.15270    1.000
    C91      C        0.29620    0.39050    0.08620    1.000
    H57      H        0.33830    0.36840    0.10800    1.000
    C92      C        0.29540    0.32780    0.99690    1.000
    C93      C        0.28540    0.39900    0.52390    1.000
    C94      C        0.47440    0.16500    0.00220    1.000
    H58      H        0.45720    0.16900    0.96210    1.000
    C95      C        0.17480    0.45900    0.02660    1.000
    H59      H        0.13260    0.48170    0.00620    1.000
    C96      C        0.31440    0.38940    0.58330    1.000
    H60      H        0.35660    0.41110    0.60560    1.000
    C97      C        0.19350    0.31920    0.52210    1.000
    H61      H        0.15240    0.29430    0.50090    1.000
    C98      C        0.19380    0.49490    0.25920    1.000
    H62      H        0.14990    0.47720    0.23820    1.000
    C99      C        0.53310    0.12650    0.03270    1.000
    H63      H        0.55570    0.10450    0.01240    1.000
    C100     C        0.52700    0.14790    0.11800    1.000
    H64      H        0.54410    0.13980    0.15780    1.000
    C101     C        0.28890    0.55390    0.26160    1.000
    H65      H        0.31190    0.57850    0.24260    1.000
    C102     C        0.25440    0.20580    0.76450    1.000
    H66      H        0.27320    0.17100    0.74690    1.000
    C103     C        0.49850    0.57220    0.59470    1.000
    H67      H        0.48090    0.54250    0.61600    1.000
    C104     C        0.55620    0.61630    0.62220    1.000
    H68      H        0.57520    0.61880    0.66240    1.000
    C105     C        0.19800    0.30020    0.81720    1.000
    H69      H        0.17520    0.33080    0.83370    1.000
    C106     C        0.28550    0.21290    0.82350    1.000
    H70      H        0.32470    0.18440    0.84510    1.000
    C107     C        0.22230    0.48400    0.31840    1.000
    H71      H        0.19780    0.46140    0.33680    1.000
    C108     C        0.17230    0.29050    0.75740    1.000
    H72      H        0.13310    0.31820    0.73470    1.000
    N25      N        0.58680    0.65580    0.59450    1.000
    N26      N        0.22070    0.31290    0.57930    1.000
    N27      N        0.22470    0.52900    0.23010    1.000
    N28      N        0.37720    0.53720    0.44290    1.000
    N29      N        0.37480    0.48690    0.52890    1.000
    N30      N        0.28910    0.45020    0.43720    1.000
    N31      N        0.20450    0.46980    0.08340    1.000
    N32      N        0.56040    0.11820    0.08950    1.000
    N33      N        0.19920    0.24550    0.73080    1.000
    N34      N        0.26230    0.32290    0.93900    1.000
    N35      N        0.35240    0.29000    0.02940    1.000
    N36      N        0.34750    0.23370    0.94250    1.000
    Ag7      Ag       0.17830    0.24386    0.63357    1.000
    Ag8      Ag       0.65575    0.04332    0.13311    1.000
    C109     C        0.90250    0.02830    0.50110    1.000
    C110     C        0.87660    0.74400    0.99960    1.000
    C111     C        0.94030    0.69870    0.03200    1.000
    C112     C        0.72360    0.86150    0.49190    1.000
    H73      H        0.70310    0.86460    0.45170    1.000
    C113     C        0.99640    0.11500    0.50520    1.000
    H74      H        0.97670    0.11650    0.46500    1.000
    C114     C        0.70250    0.91640    0.99620    1.000
    H75      H        0.68050    0.91230    0.95610    1.000
    C115     C        0.96750    0.69040    0.09060    1.000
    H76      H        0.94650    0.71290    0.11200    1.000
    C116     C        0.81860    0.94780    0.49500    1.000
    C117     C        0.78020    0.84710    0.60950    1.000
    H77      H        0.79960    0.84250    0.64960    1.000
    C118     C        0.05630    0.15510    0.53720    1.000
    H78      H        0.07620    0.18330    0.51710    1.000
    C119     C        0.82100    0.04400    0.32060    1.000
    H79      H        0.86500    0.06180    0.34100    1.000
    C120     C        0.79040    0.77400    0.91420    1.000
    C121     C        0.96700    0.07270    0.53510    1.000
    C122     C        0.75730    0.76370    0.85080    1.000
    C123     C        0.76480    0.87910    0.02700    1.000
    C124     C        0.82010    0.99800    0.41430    1.000
    C125     C        0.78800    0.00760    0.34960    1.000
    C126     C        0.76420    0.93510    0.11280    1.000
    H80      H        0.78520    0.94120    0.15270    1.000
    C127     C        0.79620    0.89050    0.08620    1.000
    H81      H        0.83830    0.86840    0.10800    1.000
    C128     C        0.79540    0.82780    0.99690    1.000
    C129     C        0.78540    0.89900    0.52390    1.000
    C130     C        0.97440    0.66500    0.00220    1.000
    H82      H        0.95720    0.66900    0.96210    1.000
    C131     C        0.67480    0.95900    0.02660    1.000
    H83      H        0.63260    0.98170    0.00620    1.000
    C132     C        0.81440    0.88940    0.58330    1.000
    H84      H        0.85660    0.91110    0.60560    1.000
    C133     C        0.69350    0.81920    0.52210    1.000
    H85      H        0.65240    0.79430    0.50090    1.000
    C134     C        0.69380    0.99490    0.25920    1.000
    H86      H        0.64990    0.97720    0.23820    1.000
    C135     C        0.03310    0.62650    0.03270    1.000
    H87      H        0.05570    0.60450    0.01240    1.000
    C136     C        0.02700    0.64790    0.11800    1.000
    H88      H        0.04410    0.63980    0.15780    1.000
    C137     C        0.78890    0.05390    0.26160    1.000
    H89      H        0.81190    0.07850    0.24260    1.000
    C138     C        0.75440    0.70580    0.76450    1.000
    H90      H        0.77320    0.67100    0.74690    1.000
    C139     C        0.99850    0.07220    0.59470    1.000
    H91      H        0.98090    0.04250    0.61600    1.000
    C140     C        0.05620    0.11630    0.62220    1.000
    H92      H        0.07520    0.11880    0.66240    1.000
    C141     C        0.69800    0.80020    0.81720    1.000
    H93      H        0.67520    0.83080    0.83370    1.000
    C142     C        0.78550    0.71290    0.82350    1.000
    H94      H        0.82470    0.68440    0.84510    1.000
    C143     C        0.72230    0.98400    0.31840    1.000
    H95      H        0.69780    0.96140    0.33680    1.000
    C144     C        0.67230    0.79050    0.75740    1.000
    H96      H        0.63310    0.81820    0.73470    1.000
    N37      N        0.08680    0.15580    0.59450    1.000
    N38      N        0.72070    0.81290    0.57930    1.000
    N39      N        0.72470    0.02900    0.23010    1.000
    N40      N        0.87720    0.03720    0.44290    1.000
    N41      N        0.87480    0.98690    0.52890    1.000
    N42      N        0.78910    0.95020    0.43720    1.000
    N43      N        0.70450    0.96980    0.08340    1.000
    N44      N        0.06040    0.61820    0.08950    1.000
    N45      N        0.69920    0.74550    0.73080    1.000
    N46      N        0.76230    0.82290    0.93900    1.000
    N47      N        0.85240    0.79000    0.02940    1.000
    N48      N        0.84750    0.73370    0.94250    1.000
    Ag9      Ag       0.67830    0.25614    0.13357    1.000
    Ag10     Ag       0.15575    0.45668    0.63311    1.000
    C145     C        0.40250    0.47170    0.00110    1.000
    C146     C        0.37660    0.75600    0.49960    1.000
    C147     C        0.44030    0.80130    0.53200    1.000
    C148     C        0.22360    0.63850    0.99190    1.000
    H97      H        0.20310    0.63540    0.95170    1.000
    C149     C        0.49640    0.38500    0.00520    1.000
    H98      H        0.47670    0.38350    0.96500    1.000
    C150     C        0.20250    0.58360    0.49620    1.000
    H99      H        0.18050    0.58770    0.45610    1.000
    C151     C        0.46750    0.80960    0.59060    1.000
    H100     H        0.44650    0.78710    0.61200    1.000
    C152     C        0.31860    0.55220    0.99500    1.000
    C153     C        0.28020    0.65290    0.10950    1.000
    H101     H        0.29960    0.65750    0.14960    1.000
    C154     C        0.55630    0.34490    0.03720    1.000
    H102     H        0.57620    0.31670    0.01710    1.000
    C155     C        0.32100    0.45600    0.82060    1.000
    H103     H        0.36500    0.43820    0.84100    1.000
    C156     C        0.29040    0.72600    0.41420    1.000
    C157     C        0.46700    0.42730    0.03510    1.000
    C158     C        0.25730    0.73630    0.35080    1.000
    C159     C        0.26480    0.62090    0.52700    1.000
    C160     C        0.32010    0.50200    0.91430    1.000
    C161     C        0.28800    0.49240    0.84960    1.000
    C162     C        0.26420    0.56490    0.61280    1.000
    H104     H        0.28520    0.55880    0.65270    1.000
    C163     C        0.29620    0.60950    0.58620    1.000
    H105     H        0.33830    0.63160    0.60800    1.000
    C164     C        0.29540    0.67220    0.49690    1.000
    C165     C        0.28540    0.60100    0.02390    1.000
    C166     C        0.47440    0.83500    0.50220    1.000
    H106     H        0.45720    0.83100    0.46210    1.000
    C167     C        0.17480    0.54100    0.52660    1.000
    H107     H        0.13260    0.51830    0.50620    1.000
    C168     C        0.31440    0.61060    0.08330    1.000
    H108     H        0.35660    0.58890    0.10560    1.000
    C169     C        0.19350    0.68080    0.02210    1.000
    H109     H        0.15240    0.70570    0.00090    1.000
    C170     C        0.19380    0.50510    0.75920    1.000
    H110     H        0.14990    0.52280    0.73820    1.000
    C171     C        0.53310    0.87350    0.53270    1.000
    H111     H        0.55570    0.89550    0.51240    1.000
    C172     C        0.52700    0.85210    0.61800    1.000
    H112     H        0.54410    0.86020    0.65780    1.000
    C173     C        0.28890    0.44610    0.76160    1.000
    H113     H        0.31190    0.42150    0.74260    1.000
    C174     C        0.25440    0.79420    0.26450    1.000
    H114     H        0.27320    0.82900    0.24690    1.000
    C175     C        0.49850    0.42780    0.09470    1.000
    H115     H        0.48090    0.45750    0.11600    1.000
    C176     C        0.55620    0.38370    0.12220    1.000
    H116     H        0.57520    0.38120    0.16240    1.000
    C177     C        0.19800    0.69980    0.31720    1.000
    H117     H        0.17520    0.66920    0.33370    1.000
    C178     C        0.28550    0.78710    0.32350    1.000
    H118     H        0.32470    0.81560    0.34510    1.000
    C179     C        0.22230    0.51600    0.81840    1.000
    H119     H        0.19780    0.53860    0.83680    1.000
    C180     C        0.17230    0.70950    0.25740    1.000
    H120     H        0.13310    0.68180    0.23470    1.000
    N49      N        0.58680    0.34420    0.09450    1.000
    N50      N        0.22070    0.68710    0.07930    1.000
    N51      N        0.22470    0.47100    0.73010    1.000
    N52      N        0.37720    0.46280    0.94290    1.000
    N53      N        0.37480    0.51310    0.02890    1.000
    N54      N        0.28910    0.54980    0.93720    1.000
    N55      N        0.20450    0.53020    0.58340    1.000
    N56      N        0.56040    0.88180    0.58950    1.000
    N57      N        0.19920    0.75450    0.23080    1.000
    N58      N        0.26230    0.67710    0.43900    1.000
    N59      N        0.35240    0.71000    0.52940    1.000
    N60      N        0.34750    0.76630    0.44250    1.000
    Ag11     Ag       0.17830    0.75614    0.13357    1.000
    Ag12     Ag       0.65575    0.95668    0.63311    1.000
    C181     C        0.90250    0.97170    0.00110    1.000
    C182     C        0.87660    0.25600    0.49960    1.000
    C183     C        0.94030    0.30130    0.53200    1.000
    C184     C        0.72360    0.13850    0.99190    1.000
    H121     H        0.70310    0.13540    0.95170    1.000
    C185     C        0.99640    0.88500    0.00520    1.000
    H122     H        0.97670    0.88350    0.96500    1.000
    C186     C        0.70250    0.08360    0.49620    1.000
    H123     H        0.68050    0.08770    0.45610    1.000
    C187     C        0.96750    0.30960    0.59060    1.000
    H124     H        0.94650    0.28710    0.61200    1.000
    C188     C        0.81860    0.05220    0.99500    1.000
    C189     C        0.78020    0.15290    0.10950    1.000
    H125     H        0.79960    0.15750    0.14960    1.000
    C190     C        0.05630    0.84490    0.03720    1.000
    H126     H        0.07620    0.81670    0.01710    1.000
    C191     C        0.82100    0.95600    0.82060    1.000
    H127     H        0.86500    0.93820    0.84100    1.000
    C192     C        0.79040    0.22600    0.41420    1.000
    C193     C        0.96700    0.92730    0.03510    1.000
    C194     C        0.75730    0.23630    0.35080    1.000
    C195     C        0.76480    0.12090    0.52700    1.000
    C196     C        0.82010    0.00200    0.91430    1.000
    C197     C        0.78800    0.99240    0.84960    1.000
    C198     C        0.76420    0.06490    0.61280    1.000
    H128     H        0.78520    0.05880    0.65270    1.000
    C199     C        0.79620    0.10950    0.58620    1.000
    H129     H        0.83830    0.13160    0.60800    1.000
    C200     C        0.79540    0.17220    0.49690    1.000
    C201     C        0.78540    0.10100    0.02390    1.000
    C202     C        0.97440    0.33500    0.50220    1.000
    H130     H        0.95720    0.33100    0.46210    1.000
    C203     C        0.67480    0.04100    0.52660    1.000
    H131     H        0.63260    0.01830    0.50620    1.000
    C204     C        0.81440    0.11060    0.08330    1.000
    H132     H        0.85660    0.08890    0.10560    1.000
    C205     C        0.69350    0.18080    0.02210    1.000
    H133     H        0.65240    0.20570    0.00090    1.000
    C206     C        0.69380    0.00510    0.75920    1.000
    H134     H        0.64990    0.02280    0.73820    1.000
    C207     C        0.03310    0.37350    0.53270    1.000
    H135     H        0.05570    0.39550    0.51240    1.000
    C208     C        0.02700    0.35210    0.61800    1.000
    H136     H        0.04410    0.36020    0.65780    1.000
    C209     C        0.78890    0.94610    0.76160    1.000
    H137     H        0.81190    0.92150    0.74260    1.000
    C210     C        0.75440    0.29420    0.26450    1.000
    H138     H        0.77320    0.32900    0.24690    1.000
    C211     C        0.99850    0.92780    0.09470    1.000
    H139     H        0.98090    0.95750    0.11600    1.000
    C212     C        0.05620    0.88370    0.12220    1.000
    H140     H        0.07520    0.88120    0.16240    1.000
    C213     C        0.69800    0.19980    0.31720    1.000
    H141     H        0.67520    0.16920    0.33370    1.000
    C214     C        0.78550    0.28710    0.32350    1.000
    H142     H        0.82470    0.31560    0.34510    1.000
    C215     C        0.72230    0.01600    0.81840    1.000
    H143     H        0.69780    0.03860    0.83680    1.000
    C216     C        0.67230    0.20950    0.25740    1.000
    H144     H        0.63310    0.18180    0.23470    1.000
    N61      N        0.08680    0.84420    0.09450    1.000
    N62      N        0.72070    0.18710    0.07930    1.000
    N63      N        0.72470    0.97100    0.73010    1.000
    N64      N        0.87720    0.96280    0.94290    1.000
    N65      N        0.87480    0.01310    0.02890    1.000
    N66      N        0.78910    0.04980    0.93720    1.000
    N67      N        0.70450    0.03020    0.58340    1.000
    N68      N        0.06040    0.38180    0.58950    1.000
    N69      N        0.69920    0.25450    0.23080    1.000
    N70      N        0.76230    0.17710    0.43900    1.000
    N71      N        0.85240    0.21000    0.52940    1.000
    N72      N        0.84750    0.26630    0.44250    1.000
    Ag13     Ag       0.32170    0.25614    0.36643    1.000
    Ag14     Ag       0.84425    0.45668    0.86689    1.000
    C217     C        0.59750    0.47170    0.49890    1.000
    C218     C        0.62340    0.75600    0.00040    1.000
    C219     C        0.55970    0.80130    0.96800    1.000
    C220     C        0.77640    0.63850    0.50810    1.000
    H145     H        0.79690    0.63540    0.54830    1.000
    C221     C        0.50360    0.38500    0.49480    1.000
    H146     H        0.52330    0.38350    0.53500    1.000
    C222     C        0.79750    0.58360    0.00380    1.000
    H147     H        0.81950    0.58770    0.04390    1.000
    C223     C        0.53250    0.80960    0.90940    1.000
    H148     H        0.55350    0.78710    0.88800    1.000
    C224     C        0.68140    0.55220    0.50500    1.000
    C225     C        0.71980    0.65290    0.39050    1.000
    H149     H        0.70040    0.65750    0.35040    1.000
    C226     C        0.44370    0.34490    0.46280    1.000
    H150     H        0.42380    0.31670    0.48290    1.000
    C227     C        0.67900    0.45600    0.67940    1.000
    H151     H        0.63500    0.43820    0.65900    1.000
    C228     C        0.70960    0.72600    0.08580    1.000
    C229     C        0.53300    0.42730    0.46490    1.000
    C230     C        0.74270    0.73630    0.14920    1.000
    C231     C        0.73520    0.62090    0.97300    1.000
    C232     C        0.67990    0.50200    0.58570    1.000
    C233     C        0.71200    0.49240    0.65040    1.000
    C234     C        0.73580    0.56490    0.88720    1.000
    H152     H        0.71480    0.55880    0.84730    1.000
    C235     C        0.70380    0.60950    0.91380    1.000
    H153     H        0.66170    0.63160    0.89200    1.000
    C236     C        0.70460    0.67220    0.00310    1.000
    C237     C        0.71460    0.60100    0.47610    1.000
    C238     C        0.52560    0.83500    0.99780    1.000
    H154     H        0.54280    0.83100    0.03790    1.000
    C239     C        0.82520    0.54100    0.97340    1.000
    H155     H        0.86740    0.51830    0.99380    1.000
    C240     C        0.68560    0.61060    0.41670    1.000
    H156     H        0.64340    0.58890    0.39440    1.000
    C241     C        0.80650    0.68080    0.47790    1.000
    H157     H        0.84760    0.70570    0.49910    1.000
    C242     C        0.80620    0.50510    0.74080    1.000
    H158     H        0.85010    0.52280    0.76180    1.000
    C243     C        0.46690    0.87350    0.96730    1.000
    H159     H        0.44430    0.89550    0.98760    1.000
    C244     C        0.47300    0.85210    0.88200    1.000
    H160     H        0.45590    0.86020    0.84220    1.000
    C245     C        0.71110    0.44610    0.73840    1.000
    H161     H        0.68810    0.42150    0.75740    1.000
    C246     C        0.74560    0.79420    0.23550    1.000
    H162     H        0.72680    0.82900    0.25310    1.000
    C247     C        0.50150    0.42780    0.40530    1.000
    H163     H        0.51910    0.45750    0.38400    1.000
    C248     C        0.44380    0.38370    0.37780    1.000
    H164     H        0.42480    0.38120    0.33760    1.000
    C249     C        0.80200    0.69980    0.18280    1.000
    H165     H        0.82480    0.66920    0.16630    1.000
    C250     C        0.71450    0.78710    0.17650    1.000
    H166     H        0.67530    0.81560    0.15490    1.000
    C251     C        0.77770    0.51600    0.68160    1.000
    H167     H        0.80220    0.53860    0.66320    1.000
    C252     C        0.82770    0.70950    0.24260    1.000
    H168     H        0.86690    0.68180    0.26530    1.000
    N73      N        0.41320    0.34420    0.40550    1.000
    N74      N        0.77930    0.68710    0.42070    1.000
    N75      N        0.77530    0.47100    0.76990    1.000
    N76      N        0.62280    0.46280    0.55710    1.000
    N77      N        0.62520    0.51310    0.47110    1.000
    N78      N        0.71090    0.54980    0.56280    1.000
    N79      N        0.79550    0.53020    0.91660    1.000
    N80      N        0.43960    0.88180    0.91050    1.000
    N81      N        0.80080    0.75450    0.26920    1.000
    N82      N        0.73770    0.67710    0.06100    1.000
    N83      N        0.64760    0.71000    0.97060    1.000
    N84      N        0.65250    0.76630    0.05750    1.000
    Ag15     Ag       0.82170    0.75614    0.36643    1.000
    Ag16     Ag       0.34425    0.95668    0.86689    1.000
    C253     C        0.09750    0.97170    0.49890    1.000
    C254     C        0.12340    0.25600    0.00040    1.000
    C255     C        0.05970    0.30130    0.96800    1.000
    C256     C        0.27640    0.13850    0.50810    1.000
    H169     H        0.29690    0.13540    0.54830    1.000
    C257     C        0.00360    0.88500    0.49480    1.000
    H170     H        0.02330    0.88350    0.53500    1.000
    C258     C        0.29750    0.08360    0.00380    1.000
    H171     H        0.31950    0.08770    0.04390    1.000
    C259     C        0.03250    0.30960    0.90940    1.000
    H172     H        0.05350    0.28710    0.88800    1.000
    C260     C        0.18140    0.05220    0.50500    1.000
    C261     C        0.21980    0.15290    0.39050    1.000
    H173     H        0.20040    0.15750    0.35040    1.000
    C262     C        0.94370    0.84490    0.46280    1.000
    H174     H        0.92380    0.81670    0.48290    1.000
    C263     C        0.17900    0.95600    0.67940    1.000
    H175     H        0.13500    0.93820    0.65900    1.000
    C264     C        0.20960    0.22600    0.08580    1.000
    C265     C        0.03300    0.92730    0.46490    1.000
    C266     C        0.24270    0.23630    0.14920    1.000
    C267     C        0.23520    0.12090    0.97300    1.000
    C268     C        0.17990    0.00200    0.58570    1.000
    C269     C        0.21200    0.99240    0.65040    1.000
    C270     C        0.23580    0.06490    0.88720    1.000
    H176     H        0.21480    0.05880    0.84730    1.000
    C271     C        0.20380    0.10950    0.91380    1.000
    H177     H        0.16170    0.13160    0.89200    1.000
    C272     C        0.20460    0.17220    0.00310    1.000
    C273     C        0.21460    0.10100    0.47610    1.000
    C274     C        0.02560    0.33500    0.99780    1.000
    H178     H        0.04280    0.33100    0.03790    1.000
    C275     C        0.32520    0.04100    0.97340    1.000
    H179     H        0.36740    0.01830    0.99380    1.000
    C276     C        0.18560    0.11060    0.41670    1.000
    H180     H        0.14340    0.08890    0.39440    1.000
    C277     C        0.30650    0.18080    0.47790    1.000
    H181     H        0.34760    0.20570    0.49910    1.000
    C278     C        0.30620    0.00510    0.74080    1.000
    H182     H        0.35010    0.02280    0.76180    1.000
    C279     C        0.96690    0.37350    0.96730    1.000
    H183     H        0.94430    0.39550    0.98760    1.000
    C280     C        0.97300    0.35210    0.88200    1.000
    H184     H        0.95590    0.36020    0.84220    1.000
    C281     C        0.21110    0.94610    0.73840    1.000
    H185     H        0.18810    0.92150    0.75740    1.000
    C282     C        0.24560    0.29420    0.23550    1.000
    H186     H        0.22680    0.32900    0.25310    1.000
    C283     C        0.00150    0.92780    0.40530    1.000
    H187     H        0.01910    0.95750    0.38400    1.000
    C284     C        0.94380    0.88370    0.37780    1.000
    H188     H        0.92480    0.88120    0.33760    1.000
    C285     C        0.30200    0.19980    0.18280    1.000
    H189     H        0.32480    0.16920    0.16630    1.000
    C286     C        0.21450    0.28710    0.17650    1.000
    H190     H        0.17530    0.31560    0.15490    1.000
    C287     C        0.27770    0.01600    0.68160    1.000
    H191     H        0.30220    0.03860    0.66320    1.000
    C288     C        0.32770    0.20950    0.24260    1.000
    H192     H        0.36690    0.18180    0.26530    1.000
    N85      N        0.91320    0.84420    0.40550    1.000
    N86      N        0.27930    0.18710    0.42070    1.000
    N87      N        0.27530    0.97100    0.76990    1.000
    N88      N        0.12280    0.96280    0.55710    1.000
    N89      N        0.12520    0.01310    0.47110    1.000
    N90      N        0.21090    0.04980    0.56280    1.000
    N91      N        0.29550    0.03020    0.91660    1.000
    N92      N        0.93960    0.38180    0.91050    1.000
    N93      N        0.30080    0.25450    0.26920    1.000
    N94      N        0.23770    0.17710    0.06100    1.000
    N95      N        0.14760    0.21000    0.97060    1.000
    N96      N        0.15250    0.26630    0.05750    1.000
