# CIF file generated by openbabel 3.1.0, see https://openbabel.org
data_I
_chemical_name_common 'DAXHUH01_clean'
_cell_length_a 11.95
_cell_length_b 12.114
_cell_length_c 13.6683
_cell_angle_alpha 63.6955
_cell_angle_beta 81.1713
_cell_angle_gamma 69.7359
_space_group_name_H-M_alt 'P 1'
_space_group_name_Hall 'P 1'
loop_
    _symmetry_equiv_pos_as_xyz
    x,y,z
loop_
    _atom_site_label
    _atom_site_type_symbol
    _atom_site_fract_x
    _atom_site_fract_y
    _atom_site_fract_z
    _atom_site_occupancy
    Fe1      Fe       0.00000    0.00000    0.00000    1.000
    Fe2      Fe       0.73968    0.89478    0.00000    1.000
    Fe3      Fe       0.26032    0.10522    0.00000    1.000
    H1       H        0.08550    0.08710    0.57480    1.000
    H2       H        0.88910    0.86720    0.60700    1.000
    H3       H        0.91450    0.33810    0.57480    1.000
    H4       H        0.11090    0.52580    0.60700    1.000
    H5       H        0.91450    0.91290    0.42520    1.000
    H6       H        0.11090    0.13280    0.39300    1.000
    H7       H        0.08550    0.66190    0.42520    1.000
    H8       H        0.88910    0.47420    0.39300    1.000
    H9       H        0.69960    0.46710    0.00000    1.000
    H10      H        0.44290    0.33980    0.00000    1.000
    H11      H        0.30040    0.53290    0.00000    1.000
    H12      H        0.55710    0.66020    0.00000    1.000
    C1       C        0.04960    0.05220    0.54480    1.000
    C2       C        0.98160    0.97700    0.61000    1.000
    C3       C        0.93330    0.92200    0.56400    1.000
    C4       C        0.95660    0.96070    0.72300    1.000
    C5       C        0.95040    0.40300    0.54480    1.000
    C6       C        0.01840    0.41300    0.61000    1.000
    C7       C        0.06670    0.51400    0.56400    1.000
    C8       C        0.04340    0.31630    0.72300    1.000
    C9       C        0.95040    0.94780    0.45520    1.000
    C10      C        0.01840    0.02300    0.39000    1.000
    C11      C        0.06670    0.07800    0.43600    1.000
    C12      C        0.04340    0.03930    0.27700    1.000
    C13      C        0.04960    0.59700    0.45520    1.000
    C14      C        0.98160    0.58700    0.39000    1.000
    C15      C        0.93330    0.48600    0.43600    1.000
    C16      C        0.95660    0.68370    0.27700    1.000
    C17      C        0.61870    0.47790    0.00000    1.000
    C18      C        0.58280    0.38340    0.00000    1.000
    C19      C        0.46950    0.40350    0.00000    1.000
    C20      C        0.66410    0.26350    0.00000    1.000
    C21      C        0.38130    0.52210    0.00000    1.000
    C22      C        0.41720    0.61660    0.00000    1.000
    C23      C        0.53050    0.59650    0.00000    1.000
    C24      C        0.33590    0.73650    0.00000    1.000
    C25      C        0.50000    0.03130    0.93740    1.000
    C26      C        0.50000    0.96870    0.06260    1.000
    N1       N        0.02060    0.98003    0.78194    1.000
    N2       N        0.96590    0.95876    0.87588    1.000
    N3       N        0.86760    0.93090    0.87420    1.000
    N4       N        0.86180    0.92828    0.77904    1.000
    N5       N        0.97940    0.23803    0.78194    1.000
    N6       N        0.03410    0.16536    0.87588    1.000
    N7       N        0.13240    0.19490    0.87420    1.000
    N8       N        0.13820    0.29268    0.77904    1.000
    N9       N        0.97940    0.01997    0.21806    1.000
    N10      N        0.03410    0.04124    0.12412    1.000
    N11      N        0.13240    0.06910    0.12580    1.000
    N12      N        0.13820    0.07172    0.22096    1.000
    N13      N        0.02060    0.76197    0.21806    1.000
    N14      N        0.96590    0.83464    0.12412    1.000
    N15      N        0.86760    0.80510    0.12580    1.000
    N16      N        0.86180    0.70732    0.22096    1.000
    N17      N        0.78650    0.23160    0.00000    1.000
    N18      N        0.82210    0.11680    0.00000    1.000
    N19      N        0.73280    0.07900    0.00000    1.000
    N20      N        0.63150    0.17040    0.00000    1.000
    N21      N        0.21350    0.76840    0.00000    1.000
    N22      N        0.17790    0.88320    0.00000    1.000
    N23      N        0.26720    0.92100    0.00000    1.000
    N24      N        0.36850    0.82960    0.00000    1.000
    O1       O        0.59620    0.00574    0.89092    1.000
    O2       O        0.40380    0.10334    0.89092    1.000
    O3       O        0.40380    0.99426    0.10908    1.000
    O4       O        0.59620    0.89666    0.10908    1.000
