# CIF file generated by openbabel 3.1.0, see https://openbabel.org
data_I
_chemical_name_common 'image0'
_cell_length_a 17.542
_cell_length_b 17.542
_cell_length_c 17.542
_cell_angle_alpha 90
_cell_angle_beta 90
_cell_angle_gamma 90
_space_group_name_H-M_alt 'P 1'
_space_group_name_Hall 'P 1'
loop_
    _symmetry_equiv_pos_as_xyz
    x,y,z
loop_
    _atom_site_label
    _atom_site_type_symbol
    _atom_site_fract_x
    _atom_site_fract_y
    _atom_site_fract_z
    _atom_site_occupancy
    N1       N        0.54160    0.65220    0.19970    1.000
    H1       H        0.52800    0.67060    0.24440    1.000
    N2       N        0.54200    0.57940    0.09840    1.000
    C1       C        0.64470    0.74670    0.17280    1.000
    C2       C        0.62810    0.79220    0.23590    1.000
    H2       H        0.58580    0.77990    0.26740    1.000
    C3       C        0.59790    0.68010    0.15420    1.000
    C4       C        0.59610    0.63450    0.09190    1.000
    H3       H        0.62860    0.64030    0.04900    1.000
    C5       C        0.51050    0.59150    0.16440    1.000
    H4       H        0.47050    0.56140    0.18500    1.000
    N3       N        0.95840    0.34780    0.69970    1.000
    H5       H        0.97200    0.32940    0.74440    1.000
    N4       N        0.95800    0.42060    0.59840    1.000
    C6       C        0.85530    0.25330    0.67280    1.000
    C7       C        0.87190    0.20780    0.73590    1.000
    H6       H        0.91420    0.22010    0.76740    1.000
    C8       C        0.90210    0.31990    0.65420    1.000
    C9       C        0.90390    0.36550    0.59190    1.000
    H7       H        0.87140    0.35970    0.54900    1.000
    C10      C        0.98950    0.40850    0.66440    1.000
    H8       H        0.02950    0.43860    0.68500    1.000
    N5       N        0.45840    0.15220    0.30030    1.000
    H9       H        0.47200    0.17060    0.25560    1.000
    N6       N        0.45800    0.07940    0.40160    1.000
    C11      C        0.35530    0.24670    0.32720    1.000
    C12      C        0.37190    0.29220    0.26410    1.000
    H10      H        0.41420    0.27990    0.23260    1.000
    C13      C        0.40210    0.18010    0.34580    1.000
    C14      C        0.40390    0.13450    0.40810    1.000
    H11      H        0.37140    0.14030    0.45100    1.000
    C15      C        0.48950    0.09150    0.33560    1.000
    H12      H        0.52950    0.06140    0.31500    1.000
    N7       N        0.04160    0.84780    0.80030    1.000
    H13      H        0.02800    0.82940    0.75560    1.000
    N8       N        0.04200    0.92060    0.90160    1.000
    C16      C        0.14470    0.75330    0.82720    1.000
    C17      C        0.12810    0.70780    0.76410    1.000
    H14      H        0.08580    0.72010    0.73260    1.000
    C18      C        0.09790    0.81990    0.84580    1.000
    C19      C        0.09610    0.86550    0.90810    1.000
    H15      H        0.12860    0.85970    0.95100    1.000
    C20      C        0.01050    0.90850    0.83560    1.000
    H16      H        0.97050    0.93860    0.81500    1.000
    N9       N        0.19970    0.54160    0.65220    1.000
    H17      H        0.24440    0.52800    0.67060    1.000
    N10      N        0.09840    0.54200    0.57940    1.000
    C21      C        0.17280    0.64470    0.74670    1.000
    C22      C        0.23590    0.62810    0.79220    1.000
    H18      H        0.26740    0.58580    0.77990    1.000
    C23      C        0.15420    0.59790    0.68010    1.000
    C24      C        0.09190    0.59610    0.63450    1.000
    H19      H        0.04900    0.62860    0.64030    1.000
    C25      C        0.16440    0.51050    0.59150    1.000
    H20      H        0.18500    0.47050    0.56140    1.000
    N11      N        0.69970    0.95840    0.34780    1.000
    H21      H        0.74440    0.97200    0.32940    1.000
    N12      N        0.59840    0.95800    0.42060    1.000
    C26      C        0.67280    0.85530    0.25330    1.000
    C27      C        0.73590    0.87190    0.20780    1.000
    H22      H        0.76740    0.91420    0.22010    1.000
    C28      C        0.65420    0.90210    0.31990    1.000
    C29      C        0.59190    0.90390    0.36550    1.000
    H23      H        0.54900    0.87140    0.35970    1.000
    C30      C        0.66440    0.98950    0.40850    1.000
    H24      H        0.68500    0.02950    0.43860    1.000
    N13      N        0.30030    0.45840    0.15220    1.000
    H25      H        0.25560    0.47200    0.17060    1.000
    N14      N        0.40160    0.45800    0.07940    1.000
    C31      C        0.32720    0.35530    0.24670    1.000
    C32      C        0.26410    0.37190    0.29220    1.000
    H26      H        0.23260    0.41420    0.27990    1.000
    C33      C        0.34580    0.40210    0.18010    1.000
    C34      C        0.40810    0.40390    0.13450    1.000
    H27      H        0.45100    0.37140    0.14030    1.000
    C35      C        0.33560    0.48950    0.09150    1.000
    H28      H        0.31500    0.52950    0.06140    1.000
    N15      N        0.80030    0.04160    0.84780    1.000
    H29      H        0.75560    0.02800    0.82940    1.000
    N16      N        0.90160    0.04200    0.92060    1.000
    C36      C        0.82720    0.14470    0.75330    1.000
    C37      C        0.76410    0.12810    0.70780    1.000
    H30      H        0.73260    0.08580    0.72010    1.000
    C38      C        0.84580    0.09790    0.81990    1.000
    C39      C        0.90810    0.09610    0.86550    1.000
    H31      H        0.95100    0.12860    0.85970    1.000
    C40      C        0.83560    0.01050    0.90850    1.000
    H32      H        0.81500    0.97050    0.93860    1.000
    N17      N        0.65220    0.19970    0.54160    1.000
    H33      H        0.67060    0.24440    0.52800    1.000
    N18      N        0.57940    0.09840    0.54200    1.000
    C41      C        0.74670    0.17280    0.64470    1.000
    C42      C        0.79220    0.23590    0.62810    1.000
    H34      H        0.77990    0.26740    0.58580    1.000
    C43      C        0.68010    0.15420    0.59790    1.000
    C44      C        0.63450    0.09190    0.59610    1.000
    H35      H        0.64030    0.04900    0.62860    1.000
    C45      C        0.59150    0.16440    0.51050    1.000
    H36      H        0.56140    0.18500    0.47050    1.000
    N19      N        0.34780    0.69970    0.95840    1.000
    H37      H        0.32940    0.74440    0.97200    1.000
    N20      N        0.42060    0.59840    0.95800    1.000
    C46      C        0.25330    0.67280    0.85530    1.000
    C47      C        0.20780    0.73590    0.87190    1.000
    H38      H        0.22010    0.76740    0.91420    1.000
    C48      C        0.31990    0.65420    0.90210    1.000
    C49      C        0.36550    0.59190    0.90390    1.000
    H39      H        0.35970    0.54900    0.87140    1.000
    C50      C        0.40850    0.66440    0.98950    1.000
    H40      H        0.43860    0.68500    0.02950    1.000
    N21      N        0.15220    0.30030    0.45840    1.000
    H41      H        0.17060    0.25560    0.47200    1.000
    N22      N        0.07940    0.40160    0.45800    1.000
    C51      C        0.24670    0.32720    0.35530    1.000
    C52      C        0.29220    0.26410    0.37190    1.000
    H42      H        0.27990    0.23260    0.41420    1.000
    C53      C        0.18010    0.34580    0.40210    1.000
    C54      C        0.13450    0.40810    0.40390    1.000
    H43      H        0.14030    0.45100    0.37140    1.000
    C55      C        0.09150    0.33560    0.48950    1.000
    H44      H        0.06140    0.31500    0.52950    1.000
    N23      N        0.84780    0.80030    0.04160    1.000
    H45      H        0.82940    0.75560    0.02800    1.000
    N24      N        0.92060    0.90160    0.04200    1.000
    C56      C        0.75330    0.82720    0.14470    1.000
    C57      C        0.70780    0.76410    0.12810    1.000
    H46      H        0.72010    0.73260    0.08580    1.000
    C58      C        0.81990    0.84580    0.09790    1.000
    C59      C        0.86550    0.90810    0.09610    1.000
    H47      H        0.85970    0.95100    0.12860    1.000
    C60      C        0.90850    0.83560    0.01050    1.000
    H48      H        0.93860    0.81500    0.97050    1.000
    N25      N        0.45840    0.34780    0.80030    1.000
    H49      H        0.47200    0.32940    0.75560    1.000
    N26      N        0.45800    0.42060    0.90160    1.000
    C61      C        0.35530    0.25330    0.82720    1.000
    C62      C        0.37190    0.20780    0.76410    1.000
    H50      H        0.41420    0.22010    0.73260    1.000
    C63      C        0.40210    0.31990    0.84580    1.000
    C64      C        0.40390    0.36550    0.90810    1.000
    H51      H        0.37140    0.35970    0.95100    1.000
    C65      C        0.48950    0.40850    0.83560    1.000
    H52      H        0.52950    0.43860    0.81500    1.000
    N27      N        0.04160    0.65220    0.30030    1.000
    H53      H        0.02800    0.67060    0.25560    1.000
    N28      N        0.04200    0.57940    0.40160    1.000
    C66      C        0.14470    0.74670    0.32720    1.000
    C67      C        0.12810    0.79220    0.26410    1.000
    H54      H        0.08580    0.77990    0.23260    1.000
    C68      C        0.09790    0.68010    0.34580    1.000
    C69      C        0.09610    0.63450    0.40810    1.000
    H55      H        0.12860    0.64030    0.45100    1.000
    C70      C        0.01050    0.59150    0.33560    1.000
    H56      H        0.97050    0.56140    0.31500    1.000
    N29      N        0.54160    0.84780    0.69970    1.000
    H57      H        0.52800    0.82940    0.74440    1.000
    N30      N        0.54200    0.92060    0.59840    1.000
    C71      C        0.64470    0.75330    0.67280    1.000
    C72      C        0.62810    0.70780    0.73590    1.000
    H58      H        0.58580    0.72010    0.76740    1.000
    C73      C        0.59790    0.81990    0.65420    1.000
    C74      C        0.59610    0.86550    0.59190    1.000
    H59      H        0.62860    0.85970    0.54900    1.000
    C75      C        0.51050    0.90850    0.66440    1.000
    H60      H        0.47050    0.93860    0.68500    1.000
    N31      N        0.95840    0.15220    0.19970    1.000
    H61      H        0.97200    0.17060    0.24440    1.000
    N32      N        0.95800    0.07940    0.09840    1.000
    C76      C        0.85530    0.24670    0.17280    1.000
    C77      C        0.87190    0.29220    0.23590    1.000
    H62      H        0.91420    0.27990    0.26740    1.000
    C78      C        0.90210    0.18010    0.15420    1.000
    C79      C        0.90390    0.13450    0.09190    1.000
    H63      H        0.87140    0.14030    0.04900    1.000
    C80      C        0.98950    0.09150    0.16440    1.000
    H64      H        0.02950    0.06140    0.18500    1.000
    N33      N        0.80030    0.45840    0.34780    1.000
    H65      H        0.75560    0.47200    0.32940    1.000
    N34      N        0.90160    0.45800    0.42060    1.000
    C81      C        0.82720    0.35530    0.25330    1.000
    C82      C        0.76410    0.37190    0.20780    1.000
    H66      H        0.73260    0.41420    0.22010    1.000
    C83      C        0.84580    0.40210    0.31990    1.000
    C84      C        0.90810    0.40390    0.36550    1.000
    H67      H        0.95100    0.37140    0.35970    1.000
    C85      C        0.83560    0.48950    0.40850    1.000
    H68      H        0.81500    0.52950    0.43860    1.000
    N35      N        0.30030    0.04160    0.65220    1.000
    H69      H        0.25560    0.02800    0.67060    1.000
    N36      N        0.40160    0.04200    0.57940    1.000
    C86      C        0.32720    0.14470    0.74670    1.000
    C87      C        0.26410    0.12810    0.79220    1.000
    H70      H        0.23260    0.08580    0.77990    1.000
    C88      C        0.34580    0.09790    0.68010    1.000
    C89      C        0.40810    0.09610    0.63450    1.000
    H71      H        0.45100    0.12860    0.64030    1.000
    C90      C        0.33560    0.01050    0.59150    1.000
    H72      H        0.31500    0.97050    0.56140    1.000
    N37      N        0.69970    0.54160    0.84780    1.000
    H73      H        0.74440    0.52800    0.82940    1.000
    N38      N        0.59840    0.54200    0.92060    1.000
    C91      C        0.67280    0.64470    0.75330    1.000
    C92      C        0.73590    0.62810    0.70780    1.000
    H74      H        0.76740    0.58580    0.72010    1.000
    C93      C        0.65420    0.59790    0.81990    1.000
    C94      C        0.59190    0.59610    0.86550    1.000
    H75      H        0.54900    0.62860    0.85970    1.000
    C95      C        0.66440    0.51050    0.90850    1.000
    H76      H        0.68500    0.47050    0.93860    1.000
    N39      N        0.19970    0.95840    0.15220    1.000
    H77      H        0.24440    0.97200    0.17060    1.000
    N40      N        0.09840    0.95800    0.07940    1.000
    C96      C        0.17280    0.85530    0.24670    1.000
    C97      C        0.23590    0.87190    0.29220    1.000
    H78      H        0.26740    0.91420    0.27990    1.000
    C98      C        0.15420    0.90210    0.18010    1.000
    C99      C        0.09190    0.90390    0.13450    1.000
    H79      H        0.04900    0.87140    0.14030    1.000
    C100     C        0.16440    0.98950    0.09150    1.000
    H80      H        0.18500    0.02950    0.06140    1.000
    N41      N        0.34780    0.80030    0.45840    1.000
    H81      H        0.32940    0.75560    0.47200    1.000
    N42      N        0.42060    0.90160    0.45800    1.000
    C101     C        0.25330    0.82720    0.35530    1.000
    C102     C        0.20780    0.76410    0.37190    1.000
    H82      H        0.22010    0.73260    0.41420    1.000
    C103     C        0.31990    0.84580    0.40210    1.000
    C104     C        0.36550    0.90810    0.40390    1.000
    H83      H        0.35970    0.95100    0.37140    1.000
    C105     C        0.40850    0.83560    0.48950    1.000
    H84      H        0.43860    0.81500    0.52950    1.000
    N43      N        0.65220    0.30030    0.04160    1.000
    H85      H        0.67060    0.25560    0.02800    1.000
    N44      N        0.57940    0.40160    0.04200    1.000
    C106     C        0.74670    0.32720    0.14470    1.000
    C107     C        0.79220    0.26410    0.12810    1.000
    H86      H        0.77990    0.23260    0.08580    1.000
    C108     C        0.68010    0.34580    0.09790    1.000
    C109     C        0.63450    0.40810    0.09610    1.000
    H87      H        0.64030    0.45100    0.12860    1.000
    C110     C        0.59150    0.33560    0.01050    1.000
    H88      H        0.56140    0.31500    0.97050    1.000
    N45      N        0.84780    0.69970    0.54160    1.000
    H89      H        0.82940    0.74440    0.52800    1.000
    N46      N        0.92060    0.59840    0.54200    1.000
    C111     C        0.75330    0.67280    0.64470    1.000
    C112     C        0.70780    0.73590    0.62810    1.000
    H90      H        0.72010    0.76740    0.58580    1.000
    C113     C        0.81990    0.65420    0.59790    1.000
    C114     C        0.86550    0.59190    0.59610    1.000
    H91      H        0.85970    0.54900    0.62860    1.000
    C115     C        0.90850    0.66440    0.51050    1.000
    H92      H        0.93860    0.68500    0.47050    1.000
    N47      N        0.15220    0.19970    0.95840    1.000
    H93      H        0.17060    0.24440    0.97200    1.000
    N48      N        0.07940    0.09840    0.95800    1.000
    C116     C        0.24670    0.17280    0.85530    1.000
    C117     C        0.29220    0.23590    0.87190    1.000
    H94      H        0.27990    0.26740    0.91420    1.000
    C118     C        0.18010    0.15420    0.90210    1.000
    C119     C        0.13450    0.09190    0.90390    1.000
    H95      H        0.14030    0.04900    0.87140    1.000
    C120     C        0.09150    0.16440    0.98950    1.000
    H96      H        0.06140    0.18500    0.02950    1.000
    Cd1      Cd       0.50000    0.50000    0.00000    1.000
    Cd2      Cd       0.00000    0.50000    0.50000    1.000
    Cd3      Cd       0.50000    0.00000    0.50000    1.000
    Cd4      Cd       0.00000    0.00000    0.00000    1.000
