# CIF file generated by openbabel 3.1.0, see https://openbabel.org
data_I
_chemical_name_common 'image0'
_cell_length_a 9.097
_cell_length_b 16.994
_cell_length_c 9.6441
_cell_angle_alpha 90
_cell_angle_beta 103.456
_cell_angle_gamma 90
_space_group_name_H-M_alt 'P 1'
_space_group_name_Hall 'P 1'
loop_
    _symmetry_equiv_pos_as_xyz
    x,y,z
loop_
    _atom_site_label
    _atom_site_type_symbol
    _atom_site_fract_x
    _atom_site_fract_y
    _atom_site_fract_z
    _atom_site_occupancy
    Ga1      Ga       0.79741    0.77657    0.07593    1.000
    Ga2      Ga       0.21594    0.76570    0.96333    1.000
    V1       V        0.31440    0.00317    0.16534    1.000
    P1       P        0.49937    0.87034    0.00813    1.000
    P2       P        0.89271    0.83772    0.81460    1.000
    P3       P        0.10917    0.84511    0.21401    1.000
    O1       O        0.43910    0.91720    0.11530    1.000
    O2       O        0.37310    0.81840    0.91740    1.000
    O3       O        0.56540    0.91670    0.90560    1.000
    O4       O        0.61850    0.81380    0.09780    1.000
    O5       O        0.82450    0.77400    0.89550    1.000
    O6       O        0.85140    0.91960    0.84930    1.000
    O7       O        0.83260    0.82110    0.65550    1.000
    O8       O        0.06490    0.83200    0.85250    1.000
    O9       O        0.93490    0.84560    0.18020    1.000
    O10      O        0.16430    0.77760    0.13330    1.000
    O11      O        0.16820    0.82910    0.37350    1.000
    O12      O        0.15650    0.92500    0.17600    1.000
    Ga3      Ga       0.20259    0.27657    0.42407    1.000
    Ga4      Ga       0.78406    0.26570    0.53667    1.000
    V2       V        0.68560    0.50317    0.33466    1.000
    P4       P        0.50063    0.37034    0.49187    1.000
    P5       P        0.10729    0.33772    0.68540    1.000
    P6       P        0.89083    0.34511    0.28599    1.000
    O13      O        0.56090    0.41720    0.38470    1.000
    O14      O        0.62690    0.31840    0.58260    1.000
    O15      O        0.43460    0.41670    0.59440    1.000
    O16      O        0.38150    0.31380    0.40220    1.000
    O17      O        0.17550    0.27400    0.60450    1.000
    O18      O        0.14860    0.41960    0.65070    1.000
    O19      O        0.16740    0.32110    0.84450    1.000
    O20      O        0.93510    0.33200    0.64750    1.000
    O21      O        0.06510    0.34560    0.31980    1.000
    O22      O        0.83570    0.27760    0.36670    1.000
    O23      O        0.83180    0.32910    0.12650    1.000
    O24      O        0.84350    0.42500    0.32400    1.000
    Ga5      Ga       0.20259    0.22343    0.92407    1.000
    Ga6      Ga       0.78406    0.23430    0.03667    1.000
    V3       V        0.68560    0.99683    0.83466    1.000
    P7       P        0.50063    0.12966    0.99187    1.000
    P8       P        0.10729    0.16228    0.18540    1.000
    P9       P        0.89083    0.15489    0.78599    1.000
    O25      O        0.56090    0.08280    0.88470    1.000
    O26      O        0.62690    0.18160    0.08260    1.000
    O27      O        0.43460    0.08330    0.09440    1.000
    O28      O        0.38150    0.18620    0.90220    1.000
    O29      O        0.17550    0.22600    0.10450    1.000
    O30      O        0.14860    0.08040    0.15070    1.000
    O31      O        0.16740    0.17890    0.34450    1.000
    O32      O        0.93510    0.16800    0.14750    1.000
    O33      O        0.06510    0.15440    0.81980    1.000
    O34      O        0.83570    0.22240    0.86670    1.000
    O35      O        0.83180    0.17090    0.62650    1.000
    O36      O        0.84350    0.07500    0.82400    1.000
    Ga7      Ga       0.79741    0.72343    0.57593    1.000
    Ga8      Ga       0.21594    0.73430    0.46333    1.000
    V4       V        0.31440    0.49683    0.66534    1.000
    P10      P        0.49937    0.62966    0.50813    1.000
    P11      P        0.89271    0.66228    0.31460    1.000
    P12      P        0.10917    0.65489    0.71401    1.000
    O37      O        0.43910    0.58280    0.61530    1.000
    O38      O        0.37310    0.68160    0.41740    1.000
    O39      O        0.56540    0.58330    0.40560    1.000
    O40      O        0.61850    0.68620    0.59780    1.000
    O41      O        0.82450    0.72600    0.39550    1.000
    O42      O        0.85140    0.58040    0.34930    1.000
    O43      O        0.83260    0.67890    0.15550    1.000
    O44      O        0.06490    0.66800    0.35250    1.000
    O45      O        0.93490    0.65440    0.68020    1.000
    O46      O        0.16430    0.72240    0.63330    1.000
    O47      O        0.16820    0.67090    0.87350    1.000
    O48      O        0.15650    0.57500    0.67600    1.000
