# CIF file generated by openbabel 3.1.0, see https://openbabel.org
data_I
_chemical_name_common 'LARZEL_clean'
_cell_length_a 16.318
_cell_length_b 16.318
_cell_length_c 6.508
_cell_angle_alpha 90
_cell_angle_beta 90
_cell_angle_gamma 90
_space_group_name_H-M_alt 'P 1'
_space_group_name_Hall 'P 1'
loop_
    _symmetry_equiv_pos_as_xyz
    x,y,z
loop_
    _atom_site_label
    _atom_site_type_symbol
    _atom_site_fract_x
    _atom_site_fract_y
    _atom_site_fract_z
    _atom_site_occupancy
    C1       C        0.60220    0.78460    0.36160    1.000
    C2       C        0.54220    0.75400    0.21020    1.000
    N3       N        0.56860    0.71410    0.03750    1.000
    O4       O        0.67686    0.76715    0.32680    1.000
    O5       O        0.57930    0.82530    0.51710    1.000
    C6       C        0.39780    0.21540    0.36160    1.000
    C7       C        0.45780    0.24600    0.21020    1.000
    N8       N        0.43140    0.28590    0.03750    1.000
    O9       O        0.32314    0.23285    0.32680    1.000
    O10      O        0.42070    0.17470    0.51710    1.000
    C11      C        0.71540    0.10220    0.86160    1.000
    C12      C        0.74600    0.04220    0.71020    1.000
    N13      N        0.78590    0.06860    0.53750    1.000
    O14      O        0.73285    0.17686    0.82680    1.000
    O15      O        0.67470    0.07930    0.01710    1.000
    C16      C        0.28460    0.89780    0.86160    1.000
    C17      C        0.25400    0.95780    0.71020    1.000
    N18      N        0.21410    0.93140    0.53750    1.000
    O19      O        0.26715    0.82314    0.82680    1.000
    O20      O        0.32530    0.92070    0.01710    1.000
    Cd21     Cd       0.70538    0.29462    0.00000    1.000
    C22      C        0.50000    0.69160    0.93780    1.000
    C23      C        0.50000    0.64160    0.74290    1.000
    C24      C        0.50000    0.30840    0.93780    1.000
    C25      C        0.50000    0.35840    0.74290    1.000
    H26      H        0.56485    0.61932    0.70941    1.000
    H27      H        0.47754    0.68108    0.60980    1.000
    H28      H        0.45761    0.58661    0.76217    1.000
    H29      H        0.56485    0.36132    0.67818    1.000
    H30      H        0.47754    0.42307    0.77778    1.000
    H31      H        0.45761    0.32860    0.62542    1.000
    C32      C        0.78460    0.60220    0.63840    1.000
    C33      C        0.75400    0.54220    0.78980    1.000
    N34      N        0.71410    0.56860    0.96250    1.000
    O35      O        0.76715    0.67686    0.67320    1.000
    O36      O        0.82530    0.57930    0.48290    1.000
    C37      C        0.21540    0.39780    0.63840    1.000
    C38      C        0.24600    0.45780    0.78980    1.000
    N39      N        0.28590    0.43140    0.96250    1.000
    O40      O        0.23285    0.32314    0.67320    1.000
    O41      O        0.17470    0.42070    0.48290    1.000
    C42      C        0.10220    0.71540    0.13840    1.000
    C43      C        0.04220    0.74600    0.28980    1.000
    N44      N        0.06860    0.78590    0.46250    1.000
    O45      O        0.17686    0.73285    0.17320    1.000
    O46      O        0.07930    0.67470    0.98290    1.000
    C47      C        0.89780    0.28460    0.13840    1.000
    C48      C        0.95780    0.25400    0.28980    1.000
    N49      N        0.93140    0.21410    0.46250    1.000
    O50      O        0.82314    0.26715    0.17320    1.000
    O51      O        0.92070    0.32530    0.98290    1.000
    Cd52     Cd       0.29462    0.70538    0.00000    1.000
    C53      C        0.69160    0.50000    0.06220    1.000
    C54      C        0.64160    0.50000    0.25710    1.000
    C55      C        0.30840    0.50000    0.06220    1.000
    C56      C        0.35840    0.50000    0.25710    1.000
    H57      H        0.61932    0.56485    0.29059    1.000
    H58      H        0.68108    0.47754    0.39020    1.000
    H59      H        0.58661    0.45761    0.23783    1.000
    H60      H        0.36132    0.56485    0.32182    1.000
    H61      H        0.42307    0.47754    0.22222    1.000
    H62      H        0.32860    0.45761    0.37458    1.000
    C63      C        0.28460    0.10220    0.86160    1.000
    C64      C        0.25400    0.04220    0.71020    1.000
    N65      N        0.21410    0.06860    0.53750    1.000
    O66      O        0.26715    0.17686    0.82680    1.000
    O67      O        0.32530    0.07930    0.01710    1.000
    C68      C        0.71540    0.89780    0.86160    1.000
    C69      C        0.74600    0.95780    0.71020    1.000
    N70      N        0.78590    0.93140    0.53750    1.000
    O71      O        0.73285    0.82314    0.82680    1.000
    O72      O        0.67470    0.92070    0.01710    1.000
    C73      C        0.60220    0.21540    0.36160    1.000
    C74      C        0.54220    0.24600    0.21020    1.000
    N75      N        0.56860    0.28590    0.03750    1.000
    O76      O        0.67686    0.23285    0.32680    1.000
    O77      O        0.57930    0.17470    0.51710    1.000
    C78      C        0.39780    0.78460    0.36160    1.000
    C79      C        0.45780    0.75400    0.21020    1.000
    N80      N        0.43140    0.71410    0.03750    1.000
    O81      O        0.32314    0.76715    0.32680    1.000
    O82      O        0.42070    0.82530    0.51710    1.000
    Cd83     Cd       0.79462    0.20538    0.50000    1.000
    C84      C        0.19160    0.00000    0.43780    1.000
    C85      C        0.14160    0.00000    0.24290    1.000
    C86      C        0.80840    0.00000    0.43780    1.000
    C87      C        0.85840    0.00000    0.24290    1.000
    H88      H        0.11932    0.06485    0.20941    1.000
    H89      H        0.18108    0.97754    0.10980    1.000
    H90      H        0.08661    0.95761    0.26217    1.000
    H91      H        0.86132    0.06485    0.17818    1.000
    H92      H        0.92307    0.97754    0.27778    1.000
    H93      H        0.82860    0.95761    0.12542    1.000
    C94      C        0.10220    0.28460    0.13840    1.000
    C95      C        0.04220    0.25400    0.28980    1.000
    N96      N        0.06860    0.21410    0.46250    1.000
    O97      O        0.17686    0.26715    0.17320    1.000
    O98      O        0.07930    0.32530    0.98290    1.000
    C99      C        0.89780    0.71540    0.13840    1.000
    C100     C        0.95780    0.74600    0.28980    1.000
    N101     N        0.93140    0.78590    0.46250    1.000
    O102     O        0.82314    0.73285    0.17320    1.000
    O103     O        0.92070    0.67470    0.98290    1.000
    C104     C        0.21540    0.60220    0.63840    1.000
    C105     C        0.24600    0.54220    0.78980    1.000
    N106     N        0.28590    0.56860    0.96250    1.000
    O107     O        0.23285    0.67686    0.67320    1.000
    O108     O        0.17470    0.57930    0.48290    1.000
    C109     C        0.78460    0.39780    0.63840    1.000
    C110     C        0.75400    0.45780    0.78980    1.000
    N111     N        0.71410    0.43140    0.96250    1.000
    O112     O        0.76715    0.32314    0.67320    1.000
    O113     O        0.82530    0.42070    0.48290    1.000
    Cd114    Cd       0.20538    0.79462    0.50000    1.000
    C115     C        0.00000    0.19160    0.56220    1.000
    C116     C        0.00000    0.14160    0.75710    1.000
    C117     C        0.00000    0.80840    0.56220    1.000
    C118     C        0.00000    0.85840    0.75710    1.000
    H119     H        0.06485    0.11932    0.79059    1.000
    H120     H        0.97754    0.18108    0.89020    1.000
    H121     H        0.95761    0.08661    0.73783    1.000
    H122     H        0.06485    0.86132    0.82182    1.000
    H123     H        0.97754    0.92307    0.72222    1.000
    H124     H        0.95761    0.82860    0.87458    1.000
    Cd125    Cd       0.79462    0.79462    0.50000    1.000
    Cd126    Cd       0.20538    0.20538    0.50000    1.000
    Cd127    Cd       0.29462    0.29462    0.00000    1.000
    Cd128    Cd       0.70538    0.70538    0.00000    1.000
