# CIF file generated by openbabel 3.1.0, see https://openbabel.org
data_I
_chemical_name_common 'image0'
_cell_length_a 11.4957
_cell_length_b 13.6804
_cell_length_c 23.9693
_cell_angle_alpha 76.328
_cell_angle_beta 76.214
_cell_angle_gamma 66.917
_space_group_name_H-M_alt 'P 1'
_space_group_name_Hall 'P 1'
loop_
    _symmetry_equiv_pos_as_xyz
    x,y,z
loop_
    _atom_site_label
    _atom_site_type_symbol
    _atom_site_fract_x
    _atom_site_fract_y
    _atom_site_fract_z
    _atom_site_occupancy
    Gd1      Gd       0.64066    0.29881    0.48270    1.000
    Gd2      Gd       0.81596    0.59810    0.03827    1.000
    C1       C        0.87440    0.50060    0.92300    1.000
    C2       C        0.84870    0.47300    0.87130    1.000
    C3       C        0.92990    0.38160    0.84950    1.000
    H1       H        0.00170    0.33770    0.86650    1.000
    C4       C        0.90670    0.35350    0.80240    1.000
    H2       H        0.96220    0.29080    0.78810    1.000
    C5       C        0.80030    0.41930    0.77700    1.000
    C6       C        0.75420    0.41320    0.72630    1.000
    C7       C        0.80320    0.33830    0.68860    1.000
    H3       H        0.87460    0.27670    0.69510    1.000
    C8       C        0.74370    0.35710    0.64120    1.000
    H4       H        0.77570    0.30730    0.61570    1.000
    C9       C        0.63820    0.44790    0.63090    1.000
    C10      C        0.57970    0.47090    0.57800    1.000
    C11      C        0.58670    0.52190    0.67010    1.000
    H5       H        0.51350    0.58210    0.66440    1.000
    C12      C        0.64500    0.50470    0.71700    1.000
    C13      C        0.61110    0.57570    0.76260    1.000
    C14      C        0.47810    0.58820    0.79750    1.000
    H6       H        0.41570    0.62540    0.77210    1.000
    H7       H        0.46140    0.62900    0.82790    1.000
    H8       H        0.47320    0.51860    0.81430    1.000
    C15      C        0.61810    0.68810    0.73470    1.000
    H9       H        0.69920    0.67980    0.70980    1.000
    H10      H        0.60930    0.72720    0.76480    1.000
    H11      H        0.55010    0.72700    0.71230    1.000
    C16      C        0.71680    0.51280    0.79950    1.000
    C17      C        0.74120    0.53900    0.84610    1.000
    H12      H        0.68580    0.60110    0.86100    1.000
    C18      C        0.02620    0.66180    0.92580    1.000
    C19      C        0.01550    0.72470    0.86570    1.000
    C20      C        0.11530    0.69410    0.82010    1.000
    H13      H        0.19000    0.63630    0.82730    1.000
    C21      C        0.10480    0.74890    0.76350    1.000
    H14      H        0.17210    0.72830    0.73310    1.000
    C22      C        0.99370    0.83390    0.75300    1.000
    C23      C        0.95380    0.90380    0.69900    1.000
    C24      C        0.01640    0.90330    0.64250    1.000
    H15      H        0.09710    0.85200    0.63350    1.000
    C25      C        0.95780    0.97950    0.59960    1.000
    H16      H        0.00080    0.98130    0.56140    1.000
    C26      C        0.83310    0.05580    0.61210    1.000
    C27      C        0.76790    0.13690    0.56590    1.000
    C28      C        0.77090    0.05480    0.66900    1.000
    H17      H        0.68910    0.10440    0.67810    1.000
    C29      C        0.83140    0.97960    0.71190    1.000
    C30      C        0.77940    0.96250    0.77790    1.000
    C31      C        0.65950    0.93300    0.78850    1.000
    H18      H        0.67480    0.87790    0.76630    1.000
    H19      H        0.58890    0.99560    0.77680    1.000
    H20      H        0.63950    0.90710    0.82910    1.000
    C32      C        0.75120    0.06290    0.80420    1.000
    H21      H        0.73550    0.04600    0.84590    1.000
    H22      H        0.67710    0.11970    0.79110    1.000
    H23      H        0.82360    0.08580    0.79220    1.000
    C33      C        0.89410    0.86670    0.79900    1.000
    C34      C        0.90450    0.81120    0.85530    1.000
    H24      H        0.83750    0.83200    0.88570    1.000
    C35      C        0.61900    0.16150    0.41850    1.000
    C36      C        0.61670    0.08260    0.38500    1.000
    C37      C        0.55380    0.01010    0.41120    1.000
    H25      H        0.51040    0.01340    0.44910    1.000
    C38      C        0.55420    0.93380    0.38220    1.000
    H26      H        0.51300    0.88540    0.40040    1.000
    C39      C        0.61780    0.93160    0.32520    1.000
    C40      C        0.63660    0.86120    0.28340    1.000
    C41      C        0.59550    0.77690    0.28800    1.000
    H27      H        0.54710    0.75550    0.32230    1.000
    C42      C        0.62810    0.72460    0.24020    1.000
    H28      H        0.60090    0.66780    0.24270    1.000
    C43      C        0.70040    0.75520    0.18880    1.000
    C44      C        0.73620    0.69820    0.13700    1.000
    C45      C        0.73920    0.83980    0.18510    1.000
    H29      H        0.78610    0.86190    0.15050    1.000
    C46      C        0.70900    0.89290    0.23230    1.000
    C47      C        0.74610    0.98510    0.23730    1.000
    C48      C        0.69630    0.08490    0.19220    1.000
    H30      H        0.72850    0.06640    0.15380    1.000
    H31      H        0.72480    0.13990    0.19590    1.000
    H32      H        0.60430    0.11100    0.19860    1.000
    C49      C        0.89150    0.95040    0.23320    1.000
    H33      H        0.92330    0.88440    0.25920    1.000
    H34      H        0.91040    0.00570    0.24340    1.000
    H35      H        0.93200    0.94000    0.19400    1.000
    C50      C        0.68070    0.00500    0.29890    1.000
    C51      C        0.67890    0.07960    0.32840    1.000
    H36      H        0.71970    0.12830    0.31030    1.000
    O1       O        0.77940    0.56190    0.95280    1.000
    O2       O        0.98490    0.46340    0.93460    1.000
    O3       O        0.46890    0.54270    0.57593    1.000
    O4       O        0.64320    0.41900    0.53689    1.000
    O5       O        0.92890    0.68780    0.96450    1.000
    O6       O        0.13090    0.58640    0.93340    1.000
    O7       O        0.65330    0.19540    0.57847    1.000
    O8       O        0.82640    0.14760    0.51390    1.000
    O9       O        0.56980    0.15920    0.47175    1.000
    O10      O        0.66970    0.23070    0.39330    1.000
    O11      O        0.72160    0.61090    0.14200    1.000
    O12      O        0.78410    0.74170    0.08880    1.000
    Gd3      Gd       0.35934    0.70119    0.51730    1.000
    Gd4      Gd       0.18404    0.40190    0.96173    1.000
    C52      C        0.12560    0.49940    0.07700    1.000
    C53      C        0.15130    0.52700    0.12870    1.000
    C54      C        0.07010    0.61840    0.15050    1.000
    H37      H        0.99830    0.66230    0.13350    1.000
    C55      C        0.09330    0.64650    0.19760    1.000
    H38      H        0.03780    0.70920    0.21190    1.000
    C56      C        0.19970    0.58070    0.22300    1.000
    C57      C        0.24580    0.58680    0.27370    1.000
    C58      C        0.19680    0.66170    0.31140    1.000
    H39      H        0.12540    0.72330    0.30490    1.000
    C59      C        0.25630    0.64290    0.35880    1.000
    H40      H        0.22430    0.69270    0.38430    1.000
    C60      C        0.36180    0.55210    0.36910    1.000
    C61      C        0.42030    0.52910    0.42200    1.000
    C62      C        0.41330    0.47810    0.32990    1.000
    H41      H        0.48650    0.41790    0.33560    1.000
    C63      C        0.35500    0.49530    0.28300    1.000
    C64      C        0.38890    0.42430    0.23740    1.000
    C65      C        0.52190    0.41180    0.20250    1.000
    H42      H        0.58430    0.37460    0.22790    1.000
    H43      H        0.53860    0.37100    0.17210    1.000
    H44      H        0.52680    0.48140    0.18570    1.000
    C66      C        0.38190    0.31190    0.26530    1.000
    H45      H        0.30080    0.32020    0.29020    1.000
    H46      H        0.39070    0.27280    0.23520    1.000
    H47      H        0.44990    0.27300    0.28770    1.000
    C67      C        0.28320    0.48720    0.20050    1.000
    C68      C        0.25880    0.46100    0.15390    1.000
    H48      H        0.31420    0.39890    0.13900    1.000
    C69      C        0.97380    0.33820    0.07420    1.000
    C70      C        0.98450    0.27530    0.13430    1.000
    C71      C        0.88470    0.30590    0.17990    1.000
    H49      H        0.81000    0.36370    0.17270    1.000
    C72      C        0.89520    0.25110    0.23650    1.000
    H50      H        0.82790    0.27170    0.26690    1.000
    C73      C        0.00630    0.16610    0.24700    1.000
    C74      C        0.04620    0.09620    0.30100    1.000
    C75      C        0.98360    0.09670    0.35750    1.000
    H51      H        0.90290    0.14800    0.36650    1.000
    C76      C        0.04220    0.02050    0.40040    1.000
    H52      H        0.99920    0.01870    0.43860    1.000
    C77      C        0.16690    0.94420    0.38790    1.000
    C78      C        0.23210    0.86310    0.43410    1.000
    C79      C        0.22910    0.94520    0.33100    1.000
    H53      H        0.31090    0.89560    0.32190    1.000
    C80      C        0.16860    0.02040    0.28810    1.000
    C81      C        0.22060    0.03750    0.22210    1.000
    C82      C        0.34050    0.06700    0.21150    1.000
    H54      H        0.32520    0.12210    0.23370    1.000
    H55      H        0.41110    0.00440    0.22320    1.000
    H56      H        0.36050    0.09290    0.17090    1.000
    C83      C        0.24880    0.93710    0.19580    1.000
    H57      H        0.26450    0.95400    0.15410    1.000
    H58      H        0.32290    0.88030    0.20890    1.000
    H59      H        0.17640    0.91420    0.20780    1.000
    C84      C        0.10590    0.13330    0.20100    1.000
    C85      C        0.09550    0.18880    0.14470    1.000
    H60      H        0.16250    0.16800    0.11430    1.000
    C86      C        0.38100    0.83850    0.58150    1.000
    C87      C        0.38330    0.91740    0.61500    1.000
    C88      C        0.44620    0.98990    0.58880    1.000
    H61      H        0.48960    0.98660    0.55090    1.000
    C89      C        0.44580    0.06620    0.61780    1.000
    H62      H        0.48700    0.11460    0.59960    1.000
    C90      C        0.38220    0.06840    0.67480    1.000
    C91      C        0.36340    0.13880    0.71660    1.000
    C92      C        0.40450    0.22310    0.71200    1.000
    H63      H        0.45290    0.24450    0.67770    1.000
    C93      C        0.37190    0.27540    0.75980    1.000
    H64      H        0.39910    0.33220    0.75730    1.000
    C94      C        0.29960    0.24480    0.81120    1.000
    C95      C        0.26380    0.30180    0.86300    1.000
    C96      C        0.26080    0.16020    0.81490    1.000
    H65      H        0.21390    0.13810    0.84950    1.000
    C97      C        0.29100    0.10710    0.76770    1.000
    C98      C        0.25390    0.01490    0.76270    1.000
    C99      C        0.30370    0.91510    0.80780    1.000
    H66      H        0.27150    0.93360    0.84620    1.000
    H67      H        0.27520    0.86010    0.80410    1.000
    H68      H        0.39570    0.88900    0.80140    1.000
    C100     C        0.10850    0.04960    0.76680    1.000
    H69      H        0.07670    0.11560    0.74080    1.000
    H70      H        0.08960    0.99430    0.75660    1.000
    H71      H        0.06800    0.06000    0.80600    1.000
    C101     C        0.31930    0.99500    0.70110    1.000
    C102     C        0.32110    0.92040    0.67160    1.000
    H72      H        0.28030    0.87170    0.68970    1.000
    O13      O        0.22060    0.43810    0.04720    1.000
    O14      O        0.01510    0.53660    0.06540    1.000
    O15      O        0.53110    0.45730    0.42407    1.000
    O16      O        0.35680    0.58100    0.46311    1.000
    O17      O        0.07110    0.31220    0.03550    1.000
    O18      O        0.86910    0.41360    0.06660    1.000
    O19      O        0.34670    0.80460    0.42153    1.000
    O20      O        0.17360    0.85240    0.48610    1.000
    O21      O        0.43020    0.84080    0.52825    1.000
    O22      O        0.33030    0.76930    0.60670    1.000
    O23      O        0.27840    0.38910    0.85800    1.000
    O24      O        0.21590    0.25830    0.91120    1.000
