# CIF file generated by openbabel 3.1.0, see https://openbabel.org
data_I
_chemical_name_common 'CAYCAI_clean'
_cell_length_a 16.0671
_cell_length_b 16.3128
_cell_length_c 20.8626
_cell_angle_alpha 72.919
_cell_angle_beta 72.729
_cell_angle_gamma 80.883
_space_group_name_H-M_alt 'P 1'
_space_group_name_Hall 'P 1'
loop_
    _symmetry_equiv_pos_as_xyz
    x,y,z
loop_
    _atom_site_label
    _atom_site_type_symbol
    _atom_site_fract_x
    _atom_site_fract_y
    _atom_site_fract_z
    _atom_site_occupancy
    Rb1      Rb       0.04199    0.05409    0.83968    1.000
    Rb2      Rb       0.08346    0.34223    0.47741    1.000
    Rb3      Rb       0.00405    0.57492    0.85804    1.000
    Rb4      Rb       0.66548    0.92274    0.94139    1.000
    Rb5      Rb       0.42612    0.99661    0.38727    1.000
    Rb6      Rb       0.95801    0.94591    0.16032    1.000
    Rb7      Rb       0.91654    0.65777    0.52259    1.000
    Rb8      Rb       0.99595    0.42508    0.14196    1.000
    Rb9      Rb       0.33452    0.07726    0.05861    1.000
    Rb10     Rb       0.57388    0.00339    0.61273    1.000
    Na1      Na       0.24830    0.25200    0.75018    1.000
    Na2      Na       0.75170    0.74800    0.24982    1.000
    Mo1      Mo       0.21298    0.47176    0.74559    1.000
    Mo2      Mo       0.30287    0.57782    0.55922    1.000
    Mo3      Mo       0.16720    0.56061    0.47999    1.000
    Mo4      Mo       0.52721    0.78126    0.32860    1.000
    Mo5      Mo       0.43147    0.69641    0.22260    1.000
    Mo6      Mo       0.44864    0.83662    0.07722    1.000
    Mo7      Mo       0.12000    0.20078    0.65391    1.000
    Mo8      Mo       0.16788    0.96481    0.68552    1.000
    Mo9      Mo       0.36197    0.93258    0.59600    1.000
    Mo10     Mo       0.81184    0.88151    0.07096    1.000
    Mo11     Mo       0.94792    0.16859    0.98417    1.000
    Mo12     Mo       0.91829    0.36065    0.99938    1.000
    Mo13     Mo       0.78702    0.52824    0.25441    1.000
    Mo14     Mo       0.69713    0.42218    0.44078    1.000
    Mo15     Mo       0.83280    0.43939    0.52001    1.000
    Mo16     Mo       0.47279    0.21874    0.67140    1.000
    Mo17     Mo       0.56853    0.30359    0.77740    1.000
    Mo18     Mo       0.55136    0.16338    0.92278    1.000
    Mo19     Mo       0.88000    0.79922    0.34609    1.000
    Mo20     Mo       0.83212    0.03519    0.31448    1.000
    Mo21     Mo       0.63803    0.06742    0.40400    1.000
    Mo22     Mo       0.18816    0.11849    0.92904    1.000
    Mo23     Mo       0.05208    0.83141    0.01583    1.000
    Mo24     Mo       0.08171    0.63935    0.00062    1.000
    P1       P        0.16833    0.40301    0.62050    1.000
    P2       P        0.07681    0.57112    0.64180    1.000
    P3       P        0.56904    0.08108    0.79259    1.000
    P4       P        0.60477    0.83302    0.15077    1.000
    P5       P        0.25804    0.11313    0.52804    1.000
    P6       P        0.33007    0.11224    0.64463    1.000
    P7       P        0.10192    0.32763    0.88299    1.000
    P8       P        0.90056    0.74576    0.96723    1.000
    P9       P        0.83167    0.59699    0.37950    1.000
    P10      P        0.92319    0.42888    0.35820    1.000
    P11      P        0.43096    0.91892    0.20741    1.000
    P12      P        0.39523    0.16698    0.84923    1.000
    P13      P        0.74196    0.88687    0.47196    1.000
    P14      P        0.66993    0.88776    0.35537    1.000
    P15      P        0.89808    0.67237    0.11701    1.000
    P16      P        0.09944    0.25424    0.03277    1.000
    H1       H        0.93380    0.47190    0.64510    1.000
    H2       H        0.98150    0.38160    0.64060    1.000
    H3       H        0.95310    0.45180    0.75590    1.000
    H4       H        0.01050    0.36540    0.75100    1.000
    H5       H        0.89240    0.29780    0.75910    1.000
    H6       H        0.83390    0.38460    0.75000    1.000
    H7       H        0.89040    0.30010    0.85930    1.000
    H8       H        0.85420    0.38850    0.85080    1.000
    H9       H        0.76480    0.27460    0.92270    1.000
    H10      H        0.72340    0.35840    0.87990    1.000
    H11      H        0.74950    0.27640    0.85150    1.000
    H12      H        0.62540    0.01710    0.08240    1.000
    H13      H        0.53440    0.06390    0.10880    1.000
    H14      H        0.63780    0.98000    0.19940    1.000
    H15      H        0.55560    0.04510    0.21460    1.000
    H16      H        0.72640    0.09250    0.11960    1.000
    H17      H        0.64430    0.15710    0.11140    1.000
    H18      H        0.70260    0.10030    0.21860    1.000
    H19      H        0.62240    0.15420    0.21550    1.000
    H20      H        0.78430    0.21030    0.14160    1.000
    H21      H        0.72900    0.23540    0.20970    1.000
    H22      H        0.69670    0.26850    0.14190    1.000
    H23      H        0.43150    0.18600    0.45710    1.000
    H24      H        0.46480    0.19070    0.51910    1.000
    H25      H        0.31920    0.29060    0.48100    1.000
    H26      H        0.35060    0.29440    0.54450    1.000
    H27      H        0.46250    0.33660    0.40340    1.000
    H28      H        0.48750    0.34720    0.46750    1.000
    H29      H        0.34910    0.43430    0.42960    1.000
    H30      H        0.39290    0.45150    0.47510    1.000
    H31      H        0.42570    0.50490    0.34070    1.000
    H32      H        0.43560    0.55160    0.39360    1.000
    H33      H        0.50780    0.48140    0.37060    1.000
    H34      H        0.17740    0.42730    0.99180    1.000
    H35      H        0.18540    0.45600    0.91170    1.000
    H36      H        0.28730    0.33460    0.89630    1.000
    H37      H        0.27880    0.30520    0.97640    1.000
    H38      H        0.40760    0.37570    0.92300    1.000
    H39      H        0.34150    0.43530    0.96560    1.000
    H40      H        0.30120    0.49870    0.85690    1.000
    H41      H        0.38500    0.45990    0.82380    1.000
    H42      H        0.43380    0.53440    0.89430    1.000
    H43      H        0.43810    0.57510    0.81550    1.000
    H44      H        0.35710    0.59850    0.87280    1.000
    H45      H        0.06620    0.52810    0.35490    1.000
    H46      H        0.01850    0.61840    0.35940    1.000
    H47      H        0.04690    0.54820    0.24410    1.000
    H48      H        0.98950    0.63460    0.24900    1.000
    H49      H        0.10760    0.70220    0.24090    1.000
    H50      H        0.16610    0.61540    0.25000    1.000
    H51      H        0.10960    0.69990    0.14070    1.000
    H52      H        0.14580    0.61150    0.14920    1.000
    H53      H        0.23520    0.72540    0.07730    1.000
    H54      H        0.27660    0.64160    0.12010    1.000
    H55      H        0.25050    0.72360    0.14850    1.000
    H56      H        0.37460    0.98290    0.91760    1.000
    H57      H        0.46560    0.93610    0.89120    1.000
    H58      H        0.36220    0.02000    0.80060    1.000
    H59      H        0.44440    0.95490    0.78540    1.000
    H60      H        0.27360    0.90750    0.88040    1.000
    H61      H        0.35570    0.84290    0.88860    1.000
    H62      H        0.29740    0.89970    0.78140    1.000
    H63      H        0.37760    0.84580    0.78450    1.000
    H64      H        0.21570    0.78970    0.85840    1.000
    H65      H        0.27100    0.76460    0.79030    1.000
    H66      H        0.30330    0.73150    0.85810    1.000
    H67      H        0.56850    0.81400    0.54290    1.000
    H68      H        0.53520    0.80930    0.48090    1.000
    H69      H        0.68080    0.70940    0.51900    1.000
    H70      H        0.64940    0.70560    0.45550    1.000
    H71      H        0.53750    0.66340    0.59660    1.000
    H72      H        0.51250    0.65280    0.53250    1.000
    H73      H        0.65090    0.56570    0.57040    1.000
    H74      H        0.60710    0.54850    0.52490    1.000
    H75      H        0.57430    0.49510    0.65930    1.000
    H76      H        0.56440    0.44840    0.60640    1.000
    H77      H        0.49220    0.51860    0.62940    1.000
    H78      H        0.82260    0.57270    0.00820    1.000
    H79      H        0.81460    0.54400    0.08830    1.000
    H80      H        0.71270    0.66540    0.10370    1.000
    H81      H        0.72120    0.69480    0.02360    1.000
    H82      H        0.59240    0.62430    0.07700    1.000
    H83      H        0.65850    0.56470    0.03440    1.000
    H84      H        0.69880    0.50130    0.14310    1.000
    H85      H        0.61500    0.54010    0.17620    1.000
    H86      H        0.56620    0.46560    0.10570    1.000
    H87      H        0.56190    0.42490    0.18450    1.000
    H88      H        0.64290    0.40150    0.12720    1.000
    C1       C        0.06660    0.47260    0.61960    1.000
    C2       C        0.98110    0.43120    0.65740    1.000
    C3       C        0.96100    0.40170    0.73800    1.000
    C4       C        0.88030    0.35290    0.77030    1.000
    C5       C        0.76500    0.30960    0.87680    1.000
    C6       C        0.53130    0.93220    0.13870    1.000
    C7       C        0.57530    0.01600    0.12240    1.000
    C8       C        0.60550    0.03140    0.17860    1.000
    C9       C        0.66920    0.11240    0.14440    1.000
    C10      C        0.72620    0.22130    0.16890    1.000
    C11      C        0.35650    0.12270    0.55150    1.000
    C12      C        0.41280    0.19490    0.50340    1.000
    C13      C        0.36990    0.28390    0.49880    1.000
    C14      C        0.43930    0.35140    0.44750    1.000
    C15      C        0.44620    0.49810    0.38090    1.000
    C16      C        0.11030    0.35170    0.96250    1.000
    C17      C        0.18620    0.40640    0.95100    1.000
    C18      C        0.27790    0.35500    0.93730    1.000
    C19      C        0.35250    0.41060    0.92660    1.000
    C20      C        0.40010    0.55360    0.86080    1.000
    C21      C        0.93340    0.52740    0.38040    1.000
    C22      C        0.01890    0.56880    0.34260    1.000
    C23      C        0.03900    0.59830    0.26200    1.000
    C24      C        0.11970    0.64710    0.22970    1.000
    C25      C        0.23500    0.69040    0.12320    1.000
    C26      C        0.46870    0.06780    0.86130    1.000
    C27      C        0.42470    0.98400    0.87760    1.000
    C28      C        0.39450    0.96860    0.82140    1.000
    C29      C        0.33080    0.88760    0.85560    1.000
    C30      C        0.27380    0.77870    0.83110    1.000
    C31      C        0.64350    0.87730    0.44850    1.000
    C32      C        0.58720    0.80510    0.49660    1.000
    C33      C        0.63010    0.71610    0.50120    1.000
    C34      C        0.56070    0.64860    0.55250    1.000
    C35      C        0.55380    0.50190    0.61910    1.000
    C36      C        0.88970    0.64830    0.03750    1.000
    C37      C        0.81380    0.59360    0.04900    1.000
    C38      C        0.72210    0.64500    0.06270    1.000
    C39      C        0.64750    0.58940    0.07340    1.000
    C40      C        0.59990    0.44640    0.13920    1.000
    N1       N        0.85180    0.33900    0.84080    1.000
    N2       N        0.67660    0.14210    0.19020    1.000
    N3       N        0.40200    0.43500    0.43590    1.000
    N4       N        0.35580    0.48050    0.86060    1.000
    N5       N        0.14820    0.66100    0.15920    1.000
    N6       N        0.32340    0.85790    0.80980    1.000
    N7       N        0.59800    0.56500    0.56410    1.000
    N8       N        0.64420    0.51950    0.13940    1.000
    O1       O        0.18670    0.38270    0.69130    1.000
    O2       O        0.62150    0.81170    0.22170    1.000
    O3       O        0.23460    0.45830    0.55950    1.000
    O4       O        0.02980    0.40520    0.98160    1.000
    O5       O        0.30270    0.01870    0.67540    1.000
    O6       O        0.55160    0.76940    0.14190    1.000
    O7       O        0.00610    0.30470    0.90670    1.000
    O8       O        0.11180    0.41110    0.82310    1.000
    O9       O        0.27760    0.52890    0.65590    1.000
    O10      O        0.41310    0.12000    0.66270    1.000
    O11      O        0.06880    0.50210    0.54600    1.000
    O12      O        0.10190    0.54600    0.71080    1.000
    O13      O        0.50670    0.93250    0.07650    1.000
    O14      O        0.68850    0.84500    0.09220    1.000
    O15      O        0.16800    0.25470    0.86620    1.000
    O16      O        0.15880    0.32220    0.60220    1.000
    O17      O        0.25690    0.17850    0.66470    1.000
    O18      O        0.18760    0.17930    0.55320    1.000
    O19      O        0.83310    0.81660    0.99040    1.000
    O20      O        0.27740    0.12030    0.45200    1.000
    O21      O        0.99690    0.76330    0.95900    1.000
    O22      O        0.06420    0.12350    0.95350    1.000
    O23      O        0.27480    0.60090    0.46980    1.000
    O24      O        0.15280    0.60880    0.57990    1.000
    O25      O        0.20790    0.09140    0.85240    1.000
    O26      O        0.23780    0.01970    0.57190    1.000
    O27      O        0.89360    0.72510    0.90400    1.000
    O28      O        0.09380    0.90940    0.94440    1.000
    O29      O        0.09050    0.22010    0.73390    1.000
    O30      O        0.60460    0.15590    0.80630    1.000
    O31      O        0.41340    0.72690    0.12870    1.000
    O32      O        0.12300    0.07930    0.68380    1.000
    O33      O        0.99390    0.62870    0.64070    1.000
    O34      O        0.86310    0.26540    0.00180    1.000
    O35      O        0.87200    0.44170    0.94350    1.000
    O36      O        0.41000    0.04100    0.54470    1.000
    O37      O        0.63030    0.00230    0.80230    1.000
    O38      O        0.90840    0.15500    0.92010    1.000
    O39      O        0.88730    0.34900    0.55940    1.000
    O40      O        0.47350    0.72190    0.28920    1.000
    O41      O        0.13090    0.62210    0.92090    1.000
    O42      O        0.64470    0.10980    0.94280    1.000
    O43      O        0.14780    0.92670    0.77340    1.000
    O44      O        0.51380    0.81530    0.00240    1.000
    O45      O        0.55780    0.11730    0.36420    1.000
    O46      O        0.37570    0.88600    0.53050    1.000
    O47      O        0.54670    0.10720    0.72350    1.000
    O48      O        0.19460    0.49640    0.42390    1.000
    O49      O        0.26440    0.88160    0.66060    1.000
    O50      O        0.81330    0.61730    0.30870    1.000
    O51      O        0.37850    0.18830    0.77830    1.000
    O52      O        0.76540    0.54170    0.44050    1.000
    O53      O        0.97020    0.59480    0.01840    1.000
    O54      O        0.69730    0.98130    0.32460    1.000
    O55      O        0.44840    0.23060    0.85810    1.000
    O56      O        0.99390    0.69530    0.09330    1.000
    O57      O        0.88820    0.58890    0.17690    1.000
    O58      O        0.72240    0.47110    0.34410    1.000
    O59      O        0.58690    0.88000    0.33730    1.000
    O60      O        0.93120    0.49790    0.45400    1.000
    O61      O        0.89810    0.45400    0.28920    1.000
    O62      O        0.49330    0.06750    0.92350    1.000
    O63      O        0.31150    0.15500    0.90780    1.000
    O64      O        0.83200    0.74530    0.13380    1.000
    O65      O        0.84120    0.67780    0.39780    1.000
    O66      O        0.74310    0.82150    0.33530    1.000
    O67      O        0.81240    0.82070    0.44680    1.000
    O68      O        0.16690    0.18340    0.00960    1.000
    O69      O        0.72260    0.87970    0.54800    1.000
    O70      O        0.00310    0.23670    0.04100    1.000
    O71      O        0.93580    0.87650    0.04650    1.000
    O72      O        0.72520    0.39910    0.53020    1.000
    O73      O        0.84720    0.39120    0.42010    1.000
    O74      O        0.79210    0.90860    0.14760    1.000
    O75      O        0.76220    0.98030    0.42810    1.000
    O76      O        0.10640    0.27490    0.09600    1.000
    O77      O        0.90620    0.09060    0.05560    1.000
    O78      O        0.90950    0.77990    0.26610    1.000
    O79      O        0.39540    0.84410    0.19370    1.000
    O80      O        0.58660    0.27310    0.87130    1.000
    O81      O        0.87700    0.92070    0.31620    1.000
    O82      O        0.00610    0.37130    0.35930    1.000
    O83      O        0.13690    0.73460    0.99820    1.000
    O84      O        0.12800    0.55830    0.05650    1.000
    O85      O        0.59000    0.95900    0.45530    1.000
    O86      O        0.36970    0.99770    0.19770    1.000
    O87      O        0.09160    0.84500    0.07990    1.000
    O88      O        0.11270    0.65100    0.44060    1.000
    O89      O        0.52650    0.27810    0.71080    1.000
    O90      O        0.86910    0.37790    0.07910    1.000
    O91      O        0.35530    0.89020    0.05720    1.000
    O92      O        0.85220    0.07330    0.22660    1.000
    O93      O        0.48620    0.18470    0.99760    1.000
    O94      O        0.44220    0.88270    0.63580    1.000
    O95      O        0.62430    0.11400    0.46950    1.000
    O96      O        0.45330    0.89280    0.27650    1.000
    O97      O        0.80540    0.50360    0.57610    1.000
    O98      O        0.73560    0.11840    0.33940    1.000
