# CIF file generated by openbabel 3.1.0, see https://openbabel.org
data_I
_chemical_name_common 'image0'
_cell_length_a 16.807
_cell_length_b 16.807
_cell_length_c 16.807
_cell_angle_alpha 90
_cell_angle_beta 90
_cell_angle_gamma 90
_space_group_name_H-M_alt 'P 1'
_space_group_name_Hall 'P 1'
loop_
    _symmetry_equiv_pos_as_xyz
    x,y,z
loop_
    _atom_site_label
    _atom_site_type_symbol
    _atom_site_fract_x
    _atom_site_fract_y
    _atom_site_fract_z
    _atom_site_occupancy
    C1       C        0.82080    0.39100    0.34130    1.000
    C2       C        0.87600    0.45730    0.30210    1.000
    C3       C        0.94670    0.41400    0.26230    1.000
    C4       C        0.99040    0.38640    0.57340    1.000
    O1       O        0.78850    0.34340    0.29440    1.000
    O2       O        0.90460    0.50670    0.36420    1.000
    O3       O        0.81440    0.39010    0.41480    1.000
    O4       O        0.01630    0.43350    0.28840    1.000
    O5       O        0.93510    0.36420    0.21020    1.000
    O6       O        0.92140    0.37890    0.54890    1.000
    O7       O        0.02600    0.33460    0.61680    1.000
    Zn1      Zn       0.87464    0.47271    0.48276    1.000
    C5       C        0.67920    0.60900    0.84130    1.000
    C6       C        0.62400    0.54270    0.80210    1.000
    C7       C        0.55330    0.58600    0.76230    1.000
    C8       C        0.50960    0.61360    0.07340    1.000
    O8       O        0.71150    0.65660    0.79440    1.000
    O9       O        0.59540    0.49330    0.86420    1.000
    O10      O        0.68560    0.60990    0.91480    1.000
    O11      O        0.48370    0.56650    0.78840    1.000
    O12      O        0.56490    0.63580    0.71020    1.000
    O13      O        0.57860    0.62110    0.04890    1.000
    O14      O        0.47400    0.66540    0.11680    1.000
    Zn2      Zn       0.62536    0.52729    0.98276    1.000
    C9       C        0.17920    0.89100    0.15870    1.000
    C10      C        0.12400    0.95730    0.19790    1.000
    C11      C        0.05330    0.91400    0.23770    1.000
    C12      C        0.00960    0.88640    0.92660    1.000
    O15      O        0.21150    0.84340    0.20560    1.000
    O16      O        0.09540    0.00670    0.13580    1.000
    O17      O        0.18560    0.89010    0.08520    1.000
    O18      O        0.98370    0.93350    0.21160    1.000
    O19      O        0.06490    0.86420    0.28980    1.000
    O20      O        0.07860    0.87890    0.95110    1.000
    O21      O        0.97400    0.83460    0.88320    1.000
    Zn3      Zn       0.12536    0.97271    0.01724    1.000
    C13      C        0.32080    0.10900    0.65870    1.000
    C14      C        0.37600    0.04270    0.69790    1.000
    C15      C        0.44670    0.08600    0.73770    1.000
    C16      C        0.49040    0.11360    0.42660    1.000
    O22      O        0.28850    0.15660    0.70560    1.000
    O23      O        0.40460    0.99330    0.63580    1.000
    O24      O        0.31440    0.10990    0.58520    1.000
    O25      O        0.51630    0.06650    0.71160    1.000
    O26      O        0.43510    0.13580    0.78980    1.000
    O27      O        0.42140    0.12110    0.45110    1.000
    O28      O        0.52600    0.16540    0.38320    1.000
    Zn4      Zn       0.37464    0.02729    0.51724    1.000
    C17      C        0.34130    0.82080    0.39100    1.000
    C18      C        0.30210    0.87600    0.45730    1.000
    C19      C        0.26230    0.94670    0.41400    1.000
    C20      C        0.57340    0.99040    0.38640    1.000
    O29      O        0.29440    0.78850    0.34340    1.000
    O30      O        0.36420    0.90460    0.50670    1.000
    O31      O        0.41480    0.81440    0.39010    1.000
    O32      O        0.28840    0.01630    0.43350    1.000
    O33      O        0.21020    0.93510    0.36420    1.000
    O34      O        0.54890    0.92140    0.37890    1.000
    O35      O        0.61680    0.02600    0.33460    1.000
    Zn5      Zn       0.48276    0.87464    0.47271    1.000
    C21      C        0.84130    0.67920    0.60900    1.000
    C22      C        0.80210    0.62400    0.54270    1.000
    C23      C        0.76230    0.55330    0.58600    1.000
    C24      C        0.07340    0.50960    0.61360    1.000
    O36      O        0.79440    0.71150    0.65660    1.000
    O37      O        0.86420    0.59540    0.49330    1.000
    O38      O        0.91480    0.68560    0.60990    1.000
    O39      O        0.78840    0.48370    0.56650    1.000
    O40      O        0.71020    0.56490    0.63580    1.000
    O41      O        0.04890    0.57860    0.62110    1.000
    O42      O        0.11680    0.47400    0.66540    1.000
    Zn6      Zn       0.98276    0.62536    0.52729    1.000
    C25      C        0.15870    0.17920    0.89100    1.000
    C26      C        0.19790    0.12400    0.95730    1.000
    C27      C        0.23770    0.05330    0.91400    1.000
    C28      C        0.92660    0.00960    0.88640    1.000
    O43      O        0.20560    0.21150    0.84340    1.000
    O44      O        0.13580    0.09540    0.00670    1.000
    O45      O        0.08520    0.18560    0.89010    1.000
    O46      O        0.21160    0.98370    0.93350    1.000
    O47      O        0.28980    0.06490    0.86420    1.000
    O48      O        0.95110    0.07860    0.87890    1.000
    O49      O        0.88320    0.97400    0.83460    1.000
    Zn7      Zn       0.01724    0.12536    0.97271    1.000
    C29      C        0.65870    0.32080    0.10900    1.000
    C30      C        0.69790    0.37600    0.04270    1.000
    C31      C        0.73770    0.44670    0.08600    1.000
    C32      C        0.42660    0.49040    0.11360    1.000
    O50      O        0.70560    0.28850    0.15660    1.000
    O51      O        0.63580    0.40460    0.99330    1.000
    O52      O        0.58520    0.31440    0.10990    1.000
    O53      O        0.71160    0.51630    0.06650    1.000
    O54      O        0.78980    0.43510    0.13580    1.000
    O55      O        0.45110    0.42140    0.12110    1.000
    O56      O        0.38320    0.52600    0.16540    1.000
    Zn8      Zn       0.51724    0.37464    0.02729    1.000
    C33      C        0.39100    0.34130    0.82080    1.000
    C34      C        0.45730    0.30210    0.87600    1.000
    C35      C        0.41400    0.26230    0.94670    1.000
    C36      C        0.38640    0.57340    0.99040    1.000
    O57      O        0.34340    0.29440    0.78850    1.000
    O58      O        0.50670    0.36420    0.90460    1.000
    O59      O        0.39010    0.41480    0.81440    1.000
    O60      O        0.43350    0.28840    0.01630    1.000
    O61      O        0.36420    0.21020    0.93510    1.000
    O62      O        0.37890    0.54890    0.92140    1.000
    O63      O        0.33460    0.61680    0.02600    1.000
    Zn9      Zn       0.47271    0.48276    0.87464    1.000
    C37      C        0.60900    0.84130    0.67920    1.000
    C38      C        0.54270    0.80210    0.62400    1.000
    C39      C        0.58600    0.76230    0.55330    1.000
    C40      C        0.61360    0.07340    0.50960    1.000
    O64      O        0.65660    0.79440    0.71150    1.000
    O65      O        0.49330    0.86420    0.59540    1.000
    O66      O        0.60990    0.91480    0.68560    1.000
    O67      O        0.56650    0.78840    0.48370    1.000
    O68      O        0.63580    0.71020    0.56490    1.000
    O69      O        0.62110    0.04890    0.57860    1.000
    O70      O        0.66540    0.11680    0.47400    1.000
    Zn10     Zn       0.52729    0.98276    0.62536    1.000
    C41      C        0.89100    0.15870    0.17920    1.000
    C42      C        0.95730    0.19790    0.12400    1.000
    C43      C        0.91400    0.23770    0.05330    1.000
    C44      C        0.88640    0.92660    0.00960    1.000
    O71      O        0.84340    0.20560    0.21150    1.000
    O72      O        0.00670    0.13580    0.09540    1.000
    O73      O        0.89010    0.08520    0.18560    1.000
    O74      O        0.93350    0.21160    0.98370    1.000
    O75      O        0.86420    0.28980    0.06490    1.000
    O76      O        0.87890    0.95110    0.07860    1.000
    O77      O        0.83460    0.88320    0.97400    1.000
    Zn11     Zn       0.97271    0.01724    0.12536    1.000
    C45      C        0.10900    0.65870    0.32080    1.000
    C46      C        0.04270    0.69790    0.37600    1.000
    C47      C        0.08600    0.73770    0.44670    1.000
    C48      C        0.11360    0.42660    0.49040    1.000
    O78      O        0.15660    0.70560    0.28850    1.000
    O79      O        0.99330    0.63580    0.40460    1.000
    O80      O        0.10990    0.58520    0.31440    1.000
    O81      O        0.06650    0.71160    0.51630    1.000
    O82      O        0.13580    0.78980    0.43510    1.000
    O83      O        0.12110    0.45110    0.42140    1.000
    O84      O        0.16540    0.38320    0.52600    1.000
    Zn12     Zn       0.02729    0.51724    0.37464    1.000
    C49      C        0.04240    0.45760    0.54240    1.000
    O85      O        0.99320    0.50680    0.49320    1.000
    Zn13     Zn       0.87119    0.62881    0.37119    1.000
    Zn14     Zn       0.14750    0.35250    0.64750    1.000
    C50      C        0.45760    0.54240    0.04240    1.000
    O86      O        0.50680    0.49320    0.99320    1.000
    Zn15     Zn       0.62881    0.37119    0.87119    1.000
    Zn16     Zn       0.35250    0.64750    0.14750    1.000
    C51      C        0.95760    0.95760    0.95760    1.000
    O87      O        0.00680    0.00680    0.00680    1.000
    Zn17     Zn       0.12881    0.12881    0.12881    1.000
    Zn18     Zn       0.85250    0.85250    0.85250    1.000
    C52      C        0.54240    0.04240    0.45760    1.000
    O88      O        0.49320    0.99320    0.50680    1.000
    Zn19     Zn       0.37119    0.87119    0.62881    1.000
    Zn20     Zn       0.64750    0.14750    0.35250    1.000
    Zn21     Zn       0.82182    0.32182    0.17818    1.000
    Zn22     Zn       0.67818    0.67818    0.67818    1.000
    Zn23     Zn       0.17818    0.82182    0.32182    1.000
    Zn24     Zn       0.32182    0.17818    0.82182    1.000
