# CIF file generated by openbabel 3.1.0, see https://openbabel.org
data_I
_chemical_name_common 'WEMDOJ_clean'
_cell_length_a 9.6885
_cell_length_b 11.817
_cell_length_c 12.326
_cell_angle_alpha 90
_cell_angle_beta 99.26
_cell_angle_gamma 90
_space_group_name_H-M_alt 'P 1'
_space_group_name_Hall 'P 1'
loop_
    _symmetry_equiv_pos_as_xyz
    x,y,z
loop_
    _atom_site_label
    _atom_site_type_symbol
    _atom_site_fract_x
    _atom_site_fract_y
    _atom_site_fract_z
    _atom_site_occupancy
    Sm1      Sm       0.78638    0.51645    0.66952    1.000
    Sm2      Sm       0.71362    0.01645    0.83048    1.000
    Sm3      Sm       0.21362    0.48355    0.33048    1.000
    Sm4      Sm       0.28638    0.98355    0.16952    1.000
    C1       C        0.49500    0.56520    0.49920    1.000
    C2       C        0.79990    0.24690    0.71740    1.000
    C3       C        0.69970    0.29050    0.79480    1.000
    C4       C        0.06320    0.50090    0.54760    1.000
    C5       C        0.00500    0.06520    0.00080    1.000
    C6       C        0.70010    0.74690    0.78260    1.000
    C7       C        0.80030    0.79050    0.70520    1.000
    C8       C        0.43680    0.00090    0.95240    1.000
    C9       C        0.50500    0.43480    0.50080    1.000
    C10      C        0.20010    0.75310    0.28260    1.000
    C11      C        0.30030    0.70950    0.20520    1.000
    C12      C        0.93680    0.49910    0.45240    1.000
    C13      C        0.99500    0.93480    0.99920    1.000
    C14      C        0.29990    0.25310    0.21740    1.000
    C15      C        0.19970    0.20950    0.29480    1.000
    C16      C        0.56320    0.99910    0.04760    1.000
    O1       O        0.58300    0.61820    0.56580    1.000
    O2       O        0.39890    0.60790    0.43220    1.000
    O3       O        0.86660    0.32031    0.67300    1.000
    O4       O        0.80700    0.14230    0.70500    1.000
    O5       O        0.64000    0.21660    0.84380    1.000
    O6       O        0.68620    0.39550    0.80110    1.000
    O7       O        0.03360    0.51510    0.64240    1.000
    O8       O        0.18140    0.48750    0.52250    1.000
    O9       O        0.91700    0.11820    0.93420    1.000
    O10      O        0.10110    0.10790    0.06780    1.000
    O11      O        0.63340    0.82031    0.82700    1.000
    O12      O        0.69300    0.64230    0.79500    1.000
    O13      O        0.86000    0.71660    0.65620    1.000
    O14      O        0.81380    0.89550    0.69890    1.000
    O15      O        0.46640    0.01510    0.85760    1.000
    O16      O        0.31860    0.98750    0.97750    1.000
    O17      O        0.41700    0.38180    0.43420    1.000
    O18      O        0.60110    0.39210    0.56780    1.000
    O19      O        0.13340    0.67969    0.32700    1.000
    O20      O        0.19300    0.85770    0.29500    1.000
    O21      O        0.36000    0.78340    0.15620    1.000
    O22      O        0.31380    0.60450    0.19890    1.000
    O23      O        0.96640    0.48490    0.35760    1.000
    O24      O        0.81860    0.51250    0.47750    1.000
    O25      O        0.08300    0.88180    0.06580    1.000
    O26      O        0.89890    0.89210    0.93220    1.000
    O27      O        0.36660    0.17969    0.17300    1.000
    O28      O        0.30700    0.35770    0.20500    1.000
    O29      O        0.14000    0.28340    0.34380    1.000
    O30      O        0.18620    0.10450    0.30110    1.000
    O31      O        0.53360    0.98490    0.14240    1.000
    O32      O        0.68140    0.01250    0.02250    1.000
