# CIF file generated by openbabel 3.1.0, see https://openbabel.org
data_I
_chemical_name_common 'image0'
_cell_length_a 34.638
_cell_length_b 34.638
_cell_length_c 8.3954
_cell_angle_alpha 90
_cell_angle_beta 90
_cell_angle_gamma 120
_space_group_name_H-M_alt 'P 1'
_space_group_name_Hall 'P 1'
loop_
    _symmetry_equiv_pos_as_xyz
    x,y,z
loop_
    _atom_site_label
    _atom_site_type_symbol
    _atom_site_fract_x
    _atom_site_fract_y
    _atom_site_fract_z
    _atom_site_occupancy
    Ag1      Ag       0.85684    0.68245    0.49030    1.000
    O1       O        0.66450    0.66460    0.28580    1.000
    N1       N        0.79650    0.66140    0.34500    1.000
    N2       N        0.72180    0.79910    0.39800    1.000
    C1       C        0.78270    0.62610    0.24900    1.000
    H1       H        0.80020    0.61200    0.24170    1.000
    C2       C        0.74410    0.60940    0.15970    1.000
    H2       H        0.73550    0.58460    0.09150    1.000
    C3       C        0.71830    0.62900    0.17040    1.000
    H3       H        0.69120    0.61750    0.11290    1.000
    C4       C        0.73280    0.66620    0.26740    1.000
    C5       C        0.77200    0.68120    0.35090    1.000
    H4       H        0.78210    0.70690    0.41600    1.000
    C6       C        0.70470    0.68750    0.28630    1.000
    C7       C        0.72670    0.73670    0.29890    1.000
    C8       C        0.76570    0.76510    0.21870    1.000
    H5       H        0.78140    0.75390    0.15950    1.000
    C9       C        0.78100    0.81020    0.22740    1.000
    H6       H        0.80670    0.83040    0.16850    1.000
    C10      C        0.75970    0.82620    0.31990    1.000
    H7       H        0.77200    0.85750    0.32920    1.000
    C11      C        0.70590    0.75570    0.38660    1.000
    H8       H        0.67900    0.73630    0.44080    1.000
    Ag2      Ag       0.31755    0.17439    0.49030    1.000
    O2       O        0.33540    0.99990    0.28580    1.000
    N3       N        0.33860    0.13510    0.34500    1.000
    N4       N        0.20090    0.92270    0.39800    1.000
    C12      C        0.37390    0.15660    0.24900    1.000
    H9       H        0.38800    0.18820    0.24170    1.000
    C13      C        0.39060    0.13470    0.15970    1.000
    H10      H        0.41540    0.15090    0.09150    1.000
    C14      C        0.37100    0.08930    0.17040    1.000
    H11      H        0.38250    0.07370    0.11290    1.000
    C15      C        0.33380    0.06660    0.26740    1.000
    C16      C        0.31880    0.09080    0.35090    1.000
    H12      H        0.29310    0.07520    0.41600    1.000
    C17      C        0.31250    0.01720    0.28630    1.000
    C18      C        0.26330    0.99000    0.29890    1.000
    C19      C        0.23490    0.00060    0.21870    1.000
    H13      H        0.24610    0.02750    0.15950    1.000
    C20      C        0.18980    0.97080    0.22740    1.000
    H14      H        0.16960    0.97630    0.16850    1.000
    C21      C        0.17380    0.93350    0.31990    1.000
    H15      H        0.14250    0.91450    0.32920    1.000
    C22      C        0.24430    0.95020    0.38660    1.000
    H16      H        0.26370    0.94270    0.44080    1.000
    Ag3      Ag       0.82561    0.14316    0.49030    1.000
    O3       O        0.00010    0.33550    0.28580    1.000
    N5       N        0.86490    0.20350    0.34500    1.000
    N6       N        0.07730    0.27820    0.39800    1.000
    C23      C        0.84340    0.21730    0.24900    1.000
    H17      H        0.81180    0.19980    0.24170    1.000
    C24      C        0.86530    0.25590    0.15970    1.000
    H18      H        0.84910    0.26450    0.09150    1.000
    C25      C        0.91070    0.28170    0.17040    1.000
    H19      H        0.92630    0.30880    0.11290    1.000
    C26      C        0.93340    0.26720    0.26740    1.000
    C27      C        0.90920    0.22800    0.35090    1.000
    H20      H        0.92480    0.21790    0.41600    1.000
    C28      C        0.98280    0.29530    0.28630    1.000
    C29      C        0.01000    0.27330    0.29890    1.000
    C30      C        0.99940    0.23430    0.21870    1.000
    H21      H        0.97250    0.21860    0.15950    1.000
    C31      C        0.02920    0.21900    0.22740    1.000
    H22      H        0.02370    0.19330    0.16850    1.000
    C32      C        0.06650    0.24030    0.31990    1.000
    H23      H        0.08550    0.22800    0.32920    1.000
    C33      C        0.04980    0.29410    0.38660    1.000
    H24      H        0.05730    0.32100    0.44080    1.000
    Ag4      Ag       0.14316    0.31755    0.50970    1.000
    O4       O        0.33550    0.33540    0.71420    1.000
    N7       N        0.20350    0.33860    0.65500    1.000
    N8       N        0.27820    0.20090    0.60200    1.000
    C34      C        0.21730    0.37390    0.75100    1.000
    H25      H        0.19980    0.38800    0.75830    1.000
    C35      C        0.25590    0.39060    0.84030    1.000
    H26      H        0.26450    0.41540    0.90850    1.000
    C36      C        0.28170    0.37100    0.82960    1.000
    H27      H        0.30880    0.38250    0.88710    1.000
    C37      C        0.26720    0.33380    0.73260    1.000
    C38      C        0.22800    0.31880    0.64910    1.000
    H28      H        0.21790    0.29310    0.58400    1.000
    C39      C        0.29530    0.31250    0.71370    1.000
    C40      C        0.27330    0.26330    0.70110    1.000
    C41      C        0.23430    0.23490    0.78130    1.000
    H29      H        0.21860    0.24610    0.84050    1.000
    C42      C        0.21900    0.18980    0.77260    1.000
    H30      H        0.19330    0.16960    0.83150    1.000
    C43      C        0.24030    0.17380    0.68010    1.000
    H31      H        0.22800    0.14250    0.67080    1.000
    C44      C        0.29410    0.24430    0.61340    1.000
    H32      H        0.32100    0.26370    0.55920    1.000
    Ag5      Ag       0.68245    0.82561    0.50970    1.000
    O5       O        0.66460    0.00010    0.71420    1.000
    N9       N        0.66140    0.86490    0.65500    1.000
    N10      N        0.79910    0.07730    0.60200    1.000
    C45      C        0.62610    0.84340    0.75100    1.000
    H33      H        0.61200    0.81180    0.75830    1.000
    C46      C        0.60940    0.86530    0.84030    1.000
    H34      H        0.58460    0.84910    0.90850    1.000
    C47      C        0.62900    0.91070    0.82960    1.000
    H35      H        0.61750    0.92630    0.88710    1.000
    C48      C        0.66620    0.93340    0.73260    1.000
    C49      C        0.68120    0.90920    0.64910    1.000
    H36      H        0.70690    0.92480    0.58400    1.000
    C50      C        0.68750    0.98280    0.71370    1.000
    C51      C        0.73670    0.01000    0.70110    1.000
    C52      C        0.76510    0.99940    0.78130    1.000
    H37      H        0.75390    0.97250    0.84050    1.000
    C53      C        0.81020    0.02920    0.77260    1.000
    H38      H        0.83040    0.02370    0.83150    1.000
    C54      C        0.82620    0.06650    0.68010    1.000
    H39      H        0.85750    0.08550    0.67080    1.000
    C55      C        0.75570    0.04980    0.61340    1.000
    H40      H        0.73630    0.05730    0.55920    1.000
    Ag6      Ag       0.17439    0.85684    0.50970    1.000
    O6       O        0.99990    0.66450    0.71420    1.000
    N11      N        0.13510    0.79650    0.65500    1.000
    N12      N        0.92270    0.72180    0.60200    1.000
    C56      C        0.15660    0.78270    0.75100    1.000
    H41      H        0.18820    0.80020    0.75830    1.000
    C57      C        0.13470    0.74410    0.84030    1.000
    H42      H        0.15090    0.73550    0.90850    1.000
    C58      C        0.08930    0.71830    0.82960    1.000
    H43      H        0.07370    0.69120    0.88710    1.000
    C59      C        0.06660    0.73280    0.73260    1.000
    C60      C        0.09080    0.77200    0.64910    1.000
    H44      H        0.07520    0.78210    0.58400    1.000
    C61      C        0.01720    0.70470    0.71370    1.000
    C62      C        0.99000    0.72670    0.70110    1.000
    C63      C        0.00060    0.76570    0.78130    1.000
    H45      H        0.02750    0.78140    0.84050    1.000
    C64      C        0.97080    0.78100    0.77260    1.000
    H46      H        0.97630    0.80670    0.83150    1.000
    C65      C        0.93350    0.75970    0.68010    1.000
    H47      H        0.91450    0.77200    0.67080    1.000
    C66      C        0.95020    0.70590    0.61340    1.000
    H48      H        0.94270    0.67900    0.55920    1.000
    Ag7      Ag       0.52351    0.01578    0.82363    1.000
    O7       O        0.33117    0.99793    0.61913    1.000
    N13      N        0.46317    0.99473    0.67833    1.000
    N14      N        0.38847    0.13243    0.73133    1.000
    C67      C        0.44937    0.95943    0.58233    1.000
    H49      H        0.46687    0.94533    0.57503    1.000
    C68      C        0.41077    0.94273    0.49303    1.000
    H50      H        0.40217    0.91793    0.42483    1.000
    C69      C        0.38497    0.96233    0.50373    1.000
    H51      H        0.35787    0.95083    0.44623    1.000
    C70      C        0.39947    0.99953    0.60073    1.000
    C71      C        0.43867    0.01453    0.68423    1.000
    H52      H        0.44877    0.04023    0.74933    1.000
    C72      C        0.37137    0.02083    0.61963    1.000
    C73      C        0.39337    0.07003    0.63223    1.000
    C74      C        0.43237    0.09843    0.55203    1.000
    H53      H        0.44807    0.08723    0.49283    1.000
    C75      C        0.44767    0.14353    0.56073    1.000
    H54      H        0.47337    0.16373    0.50183    1.000
    C76      C        0.42637    0.15953    0.65323    1.000
    H55      H        0.43867    0.19083    0.66253    1.000
    C77      C        0.37257    0.08903    0.71993    1.000
    H56      H        0.34567    0.06963    0.77413    1.000
    Ag8      Ag       0.98422    0.50772    0.82363    1.000
    O8       O        0.00207    0.33323    0.61913    1.000
    N15      N        0.00527    0.46843    0.67833    1.000
    N16      N        0.86757    0.25603    0.73133    1.000
    C78      C        0.04057    0.48993    0.58233    1.000
    H57      H        0.05467    0.52153    0.57503    1.000
    C79      C        0.05727    0.46803    0.49303    1.000
    H58      H        0.08207    0.48423    0.42483    1.000
    C80      C        0.03767    0.42263    0.50373    1.000
    H59      H        0.04917    0.40703    0.44623    1.000
    C81      C        0.00047    0.39993    0.60073    1.000
    C82      C        0.98547    0.42413    0.68423    1.000
    H60      H        0.95977    0.40853    0.74933    1.000
    C83      C        0.97917    0.35053    0.61963    1.000
    C84      C        0.92997    0.32333    0.63223    1.000
    C85      C        0.90157    0.33393    0.55203    1.000
    H61      H        0.91277    0.36083    0.49283    1.000
    C86      C        0.85647    0.30413    0.56073    1.000
    H62      H        0.83627    0.30963    0.50183    1.000
    C87      C        0.84047    0.26683    0.65323    1.000
    H63      H        0.80917    0.24783    0.66253    1.000
    C88      C        0.91097    0.28353    0.71993    1.000
    H64      H        0.93037    0.27603    0.77413    1.000
    Ag9      Ag       0.49228    0.47649    0.82363    1.000
    O9       O        0.66677    0.66883    0.61913    1.000
    N17      N        0.53157    0.53683    0.67833    1.000
    N18      N        0.74397    0.61153    0.73133    1.000
    C89      C        0.51007    0.55063    0.58233    1.000
    H65      H        0.47847    0.53313    0.57503    1.000
    C90      C        0.53197    0.58923    0.49303    1.000
    H66      H        0.51577    0.59783    0.42483    1.000
    C91      C        0.57737    0.61503    0.50373    1.000
    H67      H        0.59297    0.64213    0.44623    1.000
    C92      C        0.60007    0.60053    0.60073    1.000
    C93      C        0.57587    0.56133    0.68423    1.000
    H68      H        0.59147    0.55123    0.74933    1.000
    C94      C        0.64947    0.62863    0.61963    1.000
    C95      C        0.67667    0.60663    0.63223    1.000
    C96      C        0.66607    0.56763    0.55203    1.000
    H69      H        0.63917    0.55193    0.49283    1.000
    C97      C        0.69587    0.55233    0.56073    1.000
    H70      H        0.69037    0.52663    0.50183    1.000
    C98      C        0.73317    0.57363    0.65323    1.000
    H71      H        0.75217    0.56133    0.66253    1.000
    C99      C        0.71647    0.62743    0.71993    1.000
    H72      H        0.72397    0.65433    0.77413    1.000
    Ag10     Ag       0.80983    0.65088    0.84303    1.000
    O10      O        0.00217    0.66873    0.04753    1.000
    N19      N        0.87017    0.67193    0.98833    1.000
    N20      N        0.94487    0.53423    0.93533    1.000
    C100     C        0.88397    0.70723    0.08433    1.000
    H73      H        0.86647    0.72133    0.09163    1.000
    C101     C        0.92257    0.72393    0.17363    1.000
    H74      H        0.93117    0.74873    0.24183    1.000
    C102     C        0.94837    0.70433    0.16293    1.000
    H75      H        0.97547    0.71583    0.22043    1.000
    C103     C        0.93387    0.66713    0.06593    1.000
    C104     C        0.89467    0.65213    0.98243    1.000
    H76      H        0.88457    0.62643    0.91733    1.000
    C105     C        0.96197    0.64583    0.04703    1.000
    C106     C        0.93997    0.59663    0.03443    1.000
    C107     C        0.90097    0.56823    0.11463    1.000
    H77      H        0.88527    0.57943    0.17383    1.000
    C108     C        0.88567    0.52313    0.10593    1.000
    H78      H        0.85997    0.50293    0.16483    1.000
    C109     C        0.90697    0.50713    0.01343    1.000
    H79      H        0.89467    0.47583    0.00413    1.000
    C110     C        0.96077    0.57763    0.94673    1.000
    H80      H        0.98767    0.59703    0.89253    1.000
    Ag11     Ag       0.34912    0.15894    0.84303    1.000
    O11      O        0.33127    0.33343    0.04753    1.000
    N21      N        0.32807    0.19823    0.98833    1.000
    N22      N        0.46577    0.41063    0.93533    1.000
    C111     C        0.29277    0.17673    0.08433    1.000
    H81      H        0.27867    0.14513    0.09163    1.000
    C112     C        0.27607    0.19863    0.17363    1.000
    H82      H        0.25127    0.18243    0.24183    1.000
    C113     C        0.29567    0.24403    0.16293    1.000
    H83      H        0.28417    0.25963    0.22043    1.000
    C114     C        0.33287    0.26673    0.06593    1.000
    C115     C        0.34787    0.24253    0.98243    1.000
    H84      H        0.37357    0.25813    0.91733    1.000
    C116     C        0.35417    0.31613    0.04703    1.000
    C117     C        0.40337    0.34333    0.03443    1.000
    C118     C        0.43177    0.33273    0.11463    1.000
    H85      H        0.42057    0.30583    0.17383    1.000
    C119     C        0.47687    0.36253    0.10593    1.000
    H86      H        0.49707    0.35703    0.16483    1.000
    C120     C        0.49287    0.39983    0.01343    1.000
    H87      H        0.52417    0.41883    0.00413    1.000
    C121     C        0.42237    0.38313    0.94673    1.000
    H88      H        0.40297    0.39063    0.89253    1.000
    Ag12     Ag       0.84106    0.19017    0.84303    1.000
    O12      O        0.66657    0.99783    0.04753    1.000
    N23      N        0.80177    0.12983    0.98833    1.000
    N24      N        0.58937    0.05513    0.93533    1.000
    C122     C        0.82327    0.11603    0.08433    1.000
    H89      H        0.85487    0.13353    0.09163    1.000
    C123     C        0.80137    0.07743    0.17363    1.000
    H90      H        0.81757    0.06883    0.24183    1.000
    C124     C        0.75597    0.05163    0.16293    1.000
    H91      H        0.74037    0.02453    0.22043    1.000
    C125     C        0.73327    0.06613    0.06593    1.000
    C126     C        0.75747    0.10533    0.98243    1.000
    H92      H        0.74187    0.11543    0.91733    1.000
    C127     C        0.68387    0.03803    0.04703    1.000
    C128     C        0.65667    0.06003    0.03443    1.000
    C129     C        0.66727    0.09903    0.11463    1.000
    H93      H        0.69417    0.11473    0.17383    1.000
    C130     C        0.63747    0.11433    0.10593    1.000
    H94      H        0.64297    0.14003    0.16483    1.000
    C131     C        0.60017    0.09303    0.01343    1.000
    H95      H        0.58117    0.10533    0.00413    1.000
    C132     C        0.61687    0.03923    0.94673    1.000
    H96      H        0.60937    0.01233    0.89253    1.000
    Ag13     Ag       0.19017    0.34912    0.15697    1.000
    O13      O        0.99783    0.33127    0.95247    1.000
    N25      N        0.12983    0.32807    0.01167    1.000
    N26      N        0.05513    0.46577    0.06467    1.000
    C133     C        0.11603    0.29277    0.91567    1.000
    H97      H        0.13353    0.27867    0.90837    1.000
    C134     C        0.07743    0.27607    0.82637    1.000
    H98      H        0.06883    0.25127    0.75817    1.000
    C135     C        0.05163    0.29567    0.83707    1.000
    H99      H        0.02453    0.28417    0.77957    1.000
    C136     C        0.06613    0.33287    0.93407    1.000
    C137     C        0.10533    0.34787    0.01757    1.000
    H100     H        0.11543    0.37357    0.08267    1.000
    C138     C        0.03803    0.35417    0.95297    1.000
    C139     C        0.06003    0.40337    0.96557    1.000
    C140     C        0.09903    0.43177    0.88537    1.000
    H101     H        0.11473    0.42057    0.82617    1.000
    C141     C        0.11433    0.47687    0.89407    1.000
    H102     H        0.14003    0.49707    0.83517    1.000
    C142     C        0.09303    0.49287    0.98657    1.000
    H103     H        0.10533    0.52417    0.99587    1.000
    C143     C        0.03923    0.42237    0.05327    1.000
    H104     H        0.01233    0.40297    0.10747    1.000
    Ag14     Ag       0.65088    0.84106    0.15697    1.000
    O14      O        0.66873    0.66657    0.95247    1.000
    N27      N        0.67193    0.80177    0.01167    1.000
    N28      N        0.53423    0.58937    0.06467    1.000
    C144     C        0.70723    0.82327    0.91567    1.000
    H105     H        0.72133    0.85487    0.90837    1.000
    C145     C        0.72393    0.80137    0.82637    1.000
    H106     H        0.74873    0.81757    0.75817    1.000
    C146     C        0.70433    0.75597    0.83707    1.000
    H107     H        0.71583    0.74037    0.77957    1.000
    C147     C        0.66713    0.73327    0.93407    1.000
    C148     C        0.65213    0.75747    0.01757    1.000
    H108     H        0.62643    0.74187    0.08267    1.000
    C149     C        0.64583    0.68387    0.95297    1.000
    C150     C        0.59663    0.65667    0.96557    1.000
    C151     C        0.56823    0.66727    0.88537    1.000
    H109     H        0.57943    0.69417    0.82617    1.000
    C152     C        0.52313    0.63747    0.89407    1.000
    H110     H        0.50293    0.64297    0.83517    1.000
    C153     C        0.50713    0.60017    0.98657    1.000
    H111     H        0.47583    0.58117    0.99587    1.000
    C154     C        0.57763    0.61687    0.05327    1.000
    H112     H        0.59703    0.60937    0.10747    1.000
    Ag15     Ag       0.15894    0.80983    0.15697    1.000
    O15      O        0.33343    0.00217    0.95247    1.000
    N29      N        0.19823    0.87017    0.01167    1.000
    N30      N        0.41063    0.94487    0.06467    1.000
    C155     C        0.17673    0.88397    0.91567    1.000
    H113     H        0.14513    0.86647    0.90837    1.000
    C156     C        0.19863    0.92257    0.82637    1.000
    H114     H        0.18243    0.93117    0.75817    1.000
    C157     C        0.24403    0.94837    0.83707    1.000
    H115     H        0.25963    0.97547    0.77957    1.000
    C158     C        0.26673    0.93387    0.93407    1.000
    C159     C        0.24253    0.89467    0.01757    1.000
    H116     H        0.25813    0.88457    0.08267    1.000
    C160     C        0.31613    0.96197    0.95297    1.000
    C161     C        0.34333    0.93997    0.96557    1.000
    C162     C        0.33273    0.90097    0.88537    1.000
    H117     H        0.30583    0.88527    0.82617    1.000
    C163     C        0.36253    0.88567    0.89407    1.000
    H118     H        0.35703    0.85997    0.83517    1.000
    C164     C        0.39983    0.90697    0.98657    1.000
    H119     H        0.41883    0.89467    0.99587    1.000
    C165     C        0.38313    0.96077    0.05327    1.000
    H120     H        0.39063    0.98767    0.10747    1.000
    Ag16     Ag       0.47649    0.98422    0.17637    1.000
    O16      O        0.66883    0.00207    0.38087    1.000
    N31      N        0.53683    0.00527    0.32167    1.000
    N32      N        0.61153    0.86757    0.26867    1.000
    C166     C        0.55063    0.04057    0.41767    1.000
    H121     H        0.53313    0.05467    0.42497    1.000
    C167     C        0.58923    0.05727    0.50697    1.000
    H122     H        0.59783    0.08207    0.57517    1.000
    C168     C        0.61503    0.03767    0.49627    1.000
    H123     H        0.64213    0.04917    0.55377    1.000
    C169     C        0.60053    0.00047    0.39927    1.000
    C170     C        0.56133    0.98547    0.31577    1.000
    H124     H        0.55123    0.95977    0.25067    1.000
    C171     C        0.62863    0.97917    0.38037    1.000
    C172     C        0.60663    0.92997    0.36777    1.000
    C173     C        0.56763    0.90157    0.44797    1.000
    H125     H        0.55193    0.91277    0.50717    1.000
    C174     C        0.55233    0.85647    0.43927    1.000
    H126     H        0.52663    0.83627    0.49817    1.000
    C175     C        0.57363    0.84047    0.34677    1.000
    H127     H        0.56133    0.80917    0.33747    1.000
    C176     C        0.62743    0.91097    0.28007    1.000
    H128     H        0.65433    0.93037    0.22587    1.000
    Ag17     Ag       0.01578    0.49228    0.17637    1.000
    O17      O        0.99793    0.66677    0.38087    1.000
    N33      N        0.99473    0.53157    0.32167    1.000
    N34      N        0.13243    0.74397    0.26867    1.000
    C177     C        0.95943    0.51007    0.41767    1.000
    H129     H        0.94533    0.47847    0.42497    1.000
    C178     C        0.94273    0.53197    0.50697    1.000
    H130     H        0.91793    0.51577    0.57517    1.000
    C179     C        0.96233    0.57737    0.49627    1.000
    H131     H        0.95083    0.59297    0.55377    1.000
    C180     C        0.99953    0.60007    0.39927    1.000
    C181     C        0.01453    0.57587    0.31577    1.000
    H132     H        0.04023    0.59147    0.25067    1.000
    C182     C        0.02083    0.64947    0.38037    1.000
    C183     C        0.07003    0.67667    0.36777    1.000
    C184     C        0.09843    0.66607    0.44797    1.000
    H133     H        0.08723    0.63917    0.50717    1.000
    C185     C        0.14353    0.69587    0.43927    1.000
    H134     H        0.16373    0.69037    0.49817    1.000
    C186     C        0.15953    0.73317    0.34677    1.000
    H135     H        0.19083    0.75217    0.33747    1.000
    C187     C        0.08903    0.71647    0.28007    1.000
    H136     H        0.06963    0.72397    0.22587    1.000
    Ag18     Ag       0.50772    0.52351    0.17637    1.000
    O18      O        0.33323    0.33117    0.38087    1.000
    N35      N        0.46843    0.46317    0.32167    1.000
    N36      N        0.25603    0.38847    0.26867    1.000
    C188     C        0.48993    0.44937    0.41767    1.000
    H137     H        0.52153    0.46687    0.42497    1.000
    C189     C        0.46803    0.41077    0.50697    1.000
    H138     H        0.48423    0.40217    0.57517    1.000
    C190     C        0.42263    0.38497    0.49627    1.000
    H139     H        0.40703    0.35787    0.55377    1.000
    C191     C        0.39993    0.39947    0.39927    1.000
    C192     C        0.42413    0.43867    0.31577    1.000
    H140     H        0.40853    0.44877    0.25067    1.000
    C193     C        0.35053    0.37137    0.38037    1.000
    C194     C        0.32333    0.39337    0.36777    1.000
    C195     C        0.33393    0.43237    0.44797    1.000
    H141     H        0.36083    0.44807    0.50717    1.000
    C196     C        0.30413    0.44767    0.43927    1.000
    H142     H        0.30963    0.47337    0.49817    1.000
    C197     C        0.26683    0.42637    0.34677    1.000
    H143     H        0.24783    0.43867    0.33747    1.000
    C198     C        0.28353    0.37257    0.28007    1.000
    H144     H        0.27603    0.34567    0.22587    1.000
