# CIF file generated by openbabel 3.1.0, see https://openbabel.org
data_I
_chemical_name_common 'DEGJIK_clean'
_cell_length_a 5.8145
_cell_length_b 8.9663
_cell_length_c 16.88
_cell_angle_alpha 90
_cell_angle_beta 90
_cell_angle_gamma 94.078
_space_group_name_H-M_alt 'P 1'
_space_group_name_Hall 'P 1'
loop_
    _symmetry_equiv_pos_as_xyz
    x,y,z
loop_
    _atom_site_label
    _atom_site_type_symbol
    _atom_site_fract_x
    _atom_site_fract_y
    _atom_site_fract_z
    _atom_site_occupancy
    Cu1      Cu       0.75209    0.47175    0.56490    1.000
    Cu2      Cu       0.24791    0.02825    0.06490    1.000
    Cu3      Cu       0.24791    0.52825    0.43510    1.000
    Cu4      Cu       0.75209    0.97175    0.93510    1.000
    H1       H        0.71200    0.14400    0.64830    1.000
    H2       H        0.88520    0.04000    0.75670    1.000
    H3       H        0.24590    0.30640    0.79790    1.000
    H4       H        0.43450    0.20050    0.90130    1.000
    H5       H        0.28800    0.35600    0.14830    1.000
    H6       H        0.11480    0.46000    0.25670    1.000
    H7       H        0.75410    0.19360    0.29790    1.000
    H8       H        0.56550    0.29950    0.40130    1.000
    H9       H        0.28800    0.85600    0.35170    1.000
    H10      H        0.11480    0.96000    0.24330    1.000
    H11      H        0.75410    0.69360    0.20210    1.000
    H12      H        0.56550    0.79950    0.09870    1.000
    H13      H        0.71200    0.64400    0.85170    1.000
    H14      H        0.88520    0.54000    0.74330    1.000
    H15      H        0.24590    0.80640    0.70210    1.000
    H16      H        0.43450    0.70050    0.59870    1.000
    C1       C        0.33460    0.30510    0.64500    1.000
    C2       C        0.45840    0.23740    0.71010    1.000
    C3       C        0.65050    0.15670    0.69980    1.000
    C4       C        0.75300    0.09450    0.76490    1.000
    C5       C        0.37740    0.25220    0.78770    1.000
    C6       C        0.49020    0.18760    0.84900    1.000
    C7       C        0.66540    0.19490    0.14500    1.000
    C8       C        0.54160    0.26260    0.21010    1.000
    C9       C        0.34950    0.34330    0.19980    1.000
    C10      C        0.24700    0.40550    0.26490    1.000
    C11      C        0.62260    0.24780    0.28770    1.000
    C12      C        0.50980    0.31240    0.34900    1.000
    C13      C        0.66540    0.69490    0.35500    1.000
    C14      C        0.54160    0.76260    0.28990    1.000
    C15      C        0.34950    0.84330    0.30020    1.000
    C16      C        0.24700    0.90550    0.23510    1.000
    C17      C        0.62260    0.74780    0.21230    1.000
    C18      C        0.50980    0.81240    0.15100    1.000
    C19      C        0.33460    0.80510    0.85500    1.000
    C20      C        0.45840    0.73740    0.78990    1.000
    C21      C        0.65050    0.65670    0.80020    1.000
    C22      C        0.75300    0.59450    0.73510    1.000
    C23      C        0.37740    0.75220    0.71230    1.000
    C24      C        0.49020    0.68760    0.65100    1.000
    N1       N        0.42750    0.35920    0.57760    1.000
    N2       N        0.24750    0.41310    0.53830    1.000
    N3       N        0.05910    0.39180    0.58260    1.000
    N4       N        0.11010    0.32470    0.65040    1.000
    N5       N        0.67350    0.10790    0.83930    1.000
    N6       N        0.57250    0.14080    0.07760    1.000
    N7       N        0.75250    0.08690    0.03830    1.000
    N8       N        0.94090    0.10820    0.08260    1.000
    N9       N        0.88990    0.17530    0.15040    1.000
    N10      N        0.32650    0.39210    0.33930    1.000
    N11      N        0.57250    0.64080    0.42240    1.000
    N12      N        0.75250    0.58690    0.46170    1.000
    N13      N        0.94090    0.60820    0.41740    1.000
    N14      N        0.88990    0.67530    0.34960    1.000
    N15      N        0.32650    0.89210    0.16070    1.000
    N16      N        0.42750    0.85920    0.92240    1.000
    N17      N        0.24750    0.91310    0.96170    1.000
    N18      N        0.05910    0.89180    0.91740    1.000
    N19      N        0.11010    0.82470    0.84960    1.000
    N20      N        0.67350    0.60790    0.66070    1.000
