# CIF file generated by openbabel 3.1.0, see https://openbabel.org
data_I
_chemical_name_common 'image0'
_cell_length_a 9.238
_cell_length_b 12.268
_cell_length_c 18.098
_cell_angle_alpha 90
_cell_angle_beta 91.41
_cell_angle_gamma 90
_space_group_name_H-M_alt 'P 1'
_space_group_name_Hall 'P 1'
loop_
    _symmetry_equiv_pos_as_xyz
    x,y,z
loop_
    _atom_site_label
    _atom_site_type_symbol
    _atom_site_fract_x
    _atom_site_fract_y
    _atom_site_fract_z
    _atom_site_occupancy
    Ag1      Ag       0.62558    0.43759    0.50856    1.000
    Ag2      Ag       0.85970    0.37105    0.25409    1.000
    Ag3      Ag       0.91630    0.41383    0.76005    1.000
    Cu1      Cu       0.14870    0.21210    0.51504    1.000
    C1       C        0.44080    0.35080    0.50590    1.000
    N1       N        0.34340    0.29280    0.50600    1.000
    C2       C        0.96430    0.16810    0.65830    1.000
    N2       N        0.02460    0.18640    0.60610    1.000
    C3       C        0.80500    0.42120    0.35850    1.000
    N3       N        0.76440    0.44080    0.41620    1.000
    C4       C        0.00630    0.13500    0.36090    1.000
    N4       N        0.06010    0.16010    0.41440    1.000
    C5       C        0.82130    0.45180    0.66090    1.000
    N5       N        0.76680    0.46070    0.60300    1.000
    N6       N        0.05260    0.35470    0.50150    1.000
    H1       H        0.97640    0.34730    0.47080    1.000
    H2       H        0.11470    0.40200    0.48260    1.000
    H3       H        0.02340    0.37910    0.54500    1.000
    N7       N        0.24950    0.07030    0.53460    1.000
    C6       C        0.24590    0.98430    0.49300    1.000
    H4       H        0.19200    0.98800    0.44900    1.000
    C7       C        0.31480    0.88970    0.50890    1.000
    H5       H        0.30740    0.83140    0.47620    1.000
    C8       C        0.39010    0.88020    0.56880    1.000
    H6       H        0.44260    0.81690    0.57860    1.000
    C9       C        0.39240    0.96710    0.61990    1.000
    H7       H        0.43750    0.96200    0.66630    1.000
    C10      C        0.32240    0.06010    0.59570    1.000
    H8       H        0.32850    0.12100    0.62620    1.000
    Ag4      Ag       0.37442    0.93759    0.99144    1.000
    Ag5      Ag       0.14030    0.87105    0.24591    1.000
    Ag6      Ag       0.08370    0.91383    0.73995    1.000
    Cu2      Cu       0.85130    0.71210    0.98496    1.000
    C11      C        0.55920    0.85080    0.99410    1.000
    N8       N        0.65660    0.79280    0.99400    1.000
    C12      C        0.03570    0.66810    0.84170    1.000
    N9       N        0.97540    0.68640    0.89390    1.000
    C13      C        0.19500    0.92120    0.14150    1.000
    N10      N        0.23560    0.94080    0.08380    1.000
    C14      C        0.99370    0.63500    0.13910    1.000
    N11      N        0.93990    0.66010    0.08560    1.000
    C15      C        0.17870    0.95180    0.83910    1.000
    N12      N        0.23320    0.96070    0.89700    1.000
    N13      N        0.94740    0.85470    0.99850    1.000
    H9       H        0.02360    0.84730    0.02920    1.000
    H10      H        0.88530    0.90200    0.01740    1.000
    H11      H        0.97660    0.87910    0.95500    1.000
    N14      N        0.75050    0.57030    0.96540    1.000
    C16      C        0.75410    0.48430    0.00700    1.000
    H12      H        0.80800    0.48800    0.05100    1.000
    C17      C        0.68520    0.38970    0.99110    1.000
    H13      H        0.69260    0.33140    0.02380    1.000
    C18      C        0.60990    0.38020    0.93120    1.000
    H14      H        0.55740    0.31690    0.92140    1.000
    C19      C        0.60760    0.46710    0.88010    1.000
    H15      H        0.56250    0.46200    0.83370    1.000
    C20      C        0.67760    0.56010    0.90430    1.000
    H16      H        0.67150    0.62100    0.87380    1.000
    Ag7      Ag       0.37442    0.56241    0.49144    1.000
    Ag8      Ag       0.14030    0.62895    0.74591    1.000
    Ag9      Ag       0.08370    0.58617    0.23995    1.000
    Cu3      Cu       0.85130    0.78790    0.48496    1.000
    C21      C        0.55920    0.64920    0.49410    1.000
    N15      N        0.65660    0.70720    0.49400    1.000
    C22      C        0.03570    0.83190    0.34170    1.000
    N16      N        0.97540    0.81360    0.39390    1.000
    C23      C        0.19500    0.57880    0.64150    1.000
    N17      N        0.23560    0.55920    0.58380    1.000
    C24      C        0.99370    0.86500    0.63910    1.000
    N18      N        0.93990    0.83990    0.58560    1.000
    C25      C        0.17870    0.54820    0.33910    1.000
    N19      N        0.23320    0.53930    0.39700    1.000
    N20      N        0.94740    0.64530    0.49850    1.000
    H17      H        0.02360    0.65270    0.52920    1.000
    H18      H        0.88530    0.59800    0.51740    1.000
    H19      H        0.97660    0.62090    0.45500    1.000
    N21      N        0.75050    0.92970    0.46540    1.000
    C26      C        0.75410    0.01570    0.50700    1.000
    H20      H        0.80800    0.01200    0.55100    1.000
    C27      C        0.68520    0.11030    0.49110    1.000
    H21      H        0.69260    0.16860    0.52380    1.000
    C28      C        0.60990    0.11980    0.43120    1.000
    H22      H        0.55740    0.18310    0.42140    1.000
    C29      C        0.60760    0.03290    0.38010    1.000
    H23      H        0.56250    0.03800    0.33370    1.000
    C30      C        0.67760    0.93990    0.40430    1.000
    H24      H        0.67150    0.87900    0.37380    1.000
    Ag10     Ag       0.62558    0.06241    0.00856    1.000
    Ag11     Ag       0.85970    0.12895    0.75409    1.000
    Ag12     Ag       0.91630    0.08617    0.26005    1.000
    Cu4      Cu       0.14870    0.28790    0.01504    1.000
    C31      C        0.44080    0.14920    0.00590    1.000
    N22      N        0.34340    0.20720    0.00600    1.000
    C32      C        0.96430    0.33190    0.15830    1.000
    N23      N        0.02460    0.31360    0.10610    1.000
    C33      C        0.80500    0.07880    0.85850    1.000
    N24      N        0.76440    0.05920    0.91620    1.000
    C34      C        0.00630    0.36500    0.86090    1.000
    N25      N        0.06010    0.33990    0.91440    1.000
    C35      C        0.82130    0.04820    0.16090    1.000
    N26      N        0.76680    0.03930    0.10300    1.000
    N27      N        0.05260    0.14530    0.00150    1.000
    H25      H        0.97640    0.15270    0.97080    1.000
    H26      H        0.11470    0.09800    0.98260    1.000
    H27      H        0.02340    0.12090    0.04500    1.000
    N28      N        0.24950    0.42970    0.03460    1.000
    C36      C        0.24590    0.51570    0.99300    1.000
    H28      H        0.19200    0.51200    0.94900    1.000
    C37      C        0.31480    0.61030    0.00890    1.000
    H29      H        0.30740    0.66860    0.97620    1.000
    C38      C        0.39010    0.61980    0.06880    1.000
    H30      H        0.44260    0.68310    0.07860    1.000
    C39      C        0.39240    0.53290    0.11990    1.000
    H31      H        0.43750    0.53800    0.16630    1.000
    C40      C        0.32240    0.43990    0.09570    1.000
    H32      H        0.32850    0.37900    0.12620    1.000
