# CIF file generated by openbabel 3.1.0, see https://openbabel.org
data_I
_chemical_name_common 'image0'
_cell_length_a 9.499
_cell_length_b 9.5854
_cell_length_c 11.4945
_cell_angle_alpha 101.906
_cell_angle_beta 95.748
_cell_angle_gamma 119.387
_space_group_name_H-M_alt 'P 1'
_space_group_name_Hall 'P 1'
loop_
    _symmetry_equiv_pos_as_xyz
    x,y,z
loop_
    _atom_site_label
    _atom_site_type_symbol
    _atom_site_fract_x
    _atom_site_fract_y
    _atom_site_fract_z
    _atom_site_occupancy
    Er1      Er       0.73141    0.36122    0.49497    1.000
    Ag1      Ag       0.51032    0.80804    0.17762    1.000
    O1       O        0.41470    0.81060    0.38528    1.000
    O2       O        0.20570    0.66930    0.69310    1.000
    O3       O        0.93050    0.51750    0.67350    1.000
    O4       O        0.13170    0.78100    0.48230    1.000
    O5       O        0.85760    0.62440    0.46620    1.000
    O6       O        0.49520    0.64480    0.61760    1.000
    O7       O        0.62880    0.50710    0.62245    1.000
    N1       N        0.28260    0.75650    0.06820    1.000
    N2       N        0.76080    0.87030    0.24610    1.000
    C1       C        0.15840    0.74690    0.11860    1.000
    H1       H        0.17540    0.77180    0.20330    1.000
    C2       C        0.00670    0.70190    0.05120    1.000
    H2       H        0.92550    0.70220    0.09000    1.000
    C3       C        0.97680    0.65650    0.92620    1.000
    H3       H        0.87350    0.62120    0.87880    1.000
    C4       C        0.10280    0.66420    0.87130    1.000
    C5       C        0.25400    0.71680    0.94440    1.000
    H4       H        0.33970    0.72550    0.90760    1.000
    C6       C        0.07770    0.61360    0.73430    1.000
    C7       C        0.79380    0.78830    0.31690    1.000
    H5       H        0.70580    0.69400    0.32860    1.000
    C8       C        0.95520    0.84080    0.37250    1.000
    C9       C        0.08450    0.98150    0.35600    1.000
    H6       H        0.19370    0.02010    0.39300    1.000
    C10      C        0.05040    0.06470    0.28400    1.000
    H7       H        0.13620    0.15980    0.27140    1.000
    C11      C        0.88850    0.00510    0.23120    1.000
    H8       H        0.86660    0.06170    0.18250    1.000
    C12      C        0.98350    0.74190    0.44740    1.000
    C13      C        0.48680    0.96670    0.43030    1.000
    C14      C        0.53570    0.54300    0.56910    1.000
    O8       O        0.54020    0.07260    0.37366    1.000
    Er2      Er       0.26859    0.63878    0.50503    1.000
    Ag2      Ag       0.48968    0.19196    0.82238    1.000
    O9       O        0.58530    0.18940    0.61472    1.000
    O10      O        0.79430    0.33070    0.30690    1.000
    O11      O        0.06950    0.48250    0.32650    1.000
    O12      O        0.86830    0.21900    0.51770    1.000
    O13      O        0.14240    0.37560    0.53380    1.000
    O14      O        0.50480    0.35520    0.38240    1.000
    O15      O        0.37120    0.49290    0.37755    1.000
    N3       N        0.71740    0.24350    0.93180    1.000
    N4       N        0.23920    0.12970    0.75390    1.000
    C15      C        0.84160    0.25310    0.88140    1.000
    H9       H        0.82460    0.22820    0.79670    1.000
    C16      C        0.99330    0.29810    0.94880    1.000
    H10      H        0.07450    0.29780    0.91000    1.000
    C17      C        0.02320    0.34350    0.07380    1.000
    H11      H        0.12650    0.37880    0.12120    1.000
    C18      C        0.89720    0.33580    0.12870    1.000
    C19      C        0.74600    0.28320    0.05560    1.000
    H12      H        0.66030    0.27450    0.09240    1.000
    C20      C        0.92230    0.38640    0.26570    1.000
    C21      C        0.20620    0.21170    0.68310    1.000
    H13      H        0.29420    0.30600    0.67140    1.000
    C22      C        0.04480    0.15920    0.62750    1.000
    C23      C        0.91550    0.01850    0.64400    1.000
    H14      H        0.80630    0.97990    0.60700    1.000
    C24      C        0.94960    0.93530    0.71600    1.000
    H15      H        0.86380    0.84020    0.72860    1.000
    C25      C        0.11150    0.99490    0.76880    1.000
    H16      H        0.13340    0.93830    0.81750    1.000
    C26      C        0.01650    0.25810    0.55260    1.000
    C27      C        0.51320    0.03330    0.56970    1.000
    C28      C        0.46430    0.45700    0.43090    1.000
    O16      O        0.45980    0.92740    0.62634    1.000
