# CIF file generated by openbabel 3.1.0, see https://openbabel.org
data_I
_chemical_name_common 'image0'
_cell_length_a 13.705
_cell_length_b 10.7337
_cell_length_c 15.8778
_cell_angle_alpha 90
_cell_angle_beta 90
_cell_angle_gamma 90
_space_group_name_H-M_alt 'P 1'
_space_group_name_Hall 'P 1'
loop_
    _symmetry_equiv_pos_as_xyz
    x,y,z
loop_
    _atom_site_label
    _atom_site_type_symbol
    _atom_site_fract_x
    _atom_site_fract_y
    _atom_site_fract_z
    _atom_site_occupancy
    Zn1      Zn       0.66276    0.65860    0.42976    1.000
    P1       P        0.84021    0.86257    0.41648    1.000
    H1       H        0.91230    0.86070    0.47020    1.000
    O1       O        0.77470    0.76370    0.45010    1.000
    O2       O        0.88320    0.82830    0.33320    1.000
    O3       O        0.79260    0.98790    0.41640    1.000
    O4       O        0.59180    0.67690    0.53570    1.000
    O5       O        0.59100    0.71890    0.33340    1.000
    Zn2      Zn       0.16276    0.15860    0.42976    1.000
    P2       P        0.34021    0.36257    0.41648    1.000
    H2       H        0.41230    0.36070    0.47020    1.000
    O6       O        0.27470    0.26370    0.45010    1.000
    O7       O        0.38320    0.32830    0.33320    1.000
    O8       O        0.29260    0.48790    0.41640    1.000
    O9       O        0.09180    0.17690    0.53570    1.000
    O10      O        0.09100    0.21890    0.33340    1.000
    Zn3      Zn       0.33724    0.34140    0.92976    1.000
    P3       P        0.15979    0.13743    0.91648    1.000
    H3       H        0.08770    0.13930    0.97020    1.000
    O11      O        0.22530    0.23630    0.95010    1.000
    O12      O        0.11680    0.17170    0.83320    1.000
    O13      O        0.20740    0.01210    0.91640    1.000
    O14      O        0.40820    0.32310    0.03570    1.000
    O15      O        0.40900    0.28110    0.83340    1.000
    Zn4      Zn       0.83724    0.84140    0.92976    1.000
    P4       P        0.65979    0.63743    0.91648    1.000
    H4       H        0.58770    0.63930    0.97020    1.000
    O16      O        0.72530    0.73630    0.95010    1.000
    O17      O        0.61680    0.67170    0.83320    1.000
    O18      O        0.70740    0.51210    0.91640    1.000
    O19      O        0.90820    0.82310    0.03570    1.000
    O20      O        0.90900    0.78110    0.83340    1.000
    Zn5      Zn       0.66276    0.34140    0.92976    1.000
    P5       P        0.84021    0.13743    0.91648    1.000
    H5       H        0.91230    0.13930    0.97020    1.000
    O21      O        0.77470    0.23630    0.95010    1.000
    O22      O        0.88320    0.17170    0.83320    1.000
    O23      O        0.79260    0.01210    0.91640    1.000
    O24      O        0.59180    0.32310    0.03570    1.000
    O25      O        0.59100    0.28110    0.83340    1.000
    Zn6      Zn       0.16276    0.84140    0.92976    1.000
    P6       P        0.34021    0.63743    0.91648    1.000
    H6       H        0.41230    0.63930    0.97020    1.000
    O26      O        0.27470    0.73630    0.95010    1.000
    O27      O        0.38320    0.67170    0.83320    1.000
    O28      O        0.29260    0.51210    0.91640    1.000
    O29      O        0.09180    0.82310    0.03570    1.000
    O30      O        0.09100    0.78110    0.83340    1.000
    Zn7      Zn       0.33724    0.65860    0.42976    1.000
    P7       P        0.15979    0.86257    0.41648    1.000
    H7       H        0.08770    0.86070    0.47020    1.000
    O31      O        0.22530    0.76370    0.45010    1.000
    O32      O        0.11680    0.82830    0.33320    1.000
    O33      O        0.20740    0.98790    0.41640    1.000
    O34      O        0.40820    0.67690    0.53570    1.000
    O35      O        0.40900    0.71890    0.33340    1.000
    Zn8      Zn       0.83724    0.15860    0.42976    1.000
    P8       P        0.65979    0.36257    0.41648    1.000
    H8       H        0.58770    0.36070    0.47020    1.000
    O36      O        0.72530    0.26370    0.45010    1.000
    O37      O        0.61680    0.32830    0.33320    1.000
    O38      O        0.70740    0.48790    0.41640    1.000
    O39      O        0.90820    0.17690    0.53570    1.000
    O40      O        0.90900    0.21890    0.33340    1.000
    Zn9      Zn       0.50000    0.38161    0.27572    1.000
    P9       P        0.50000    0.64480    0.58089    1.000
    H9       H        0.50000    0.52730    0.60110    1.000
    P10      P        0.50000    0.68320    0.28837    1.000
    H10      H        0.50000    0.74760    0.21910    1.000
    O41      O        0.50000    0.70830    0.66680    1.000
    O42      O        0.50000    0.55720    0.25140    1.000
    Zn10     Zn       0.00000    0.88161    0.27572    1.000
    P11      P        0.00000    0.14480    0.58089    1.000
    H11      H        0.00000    0.02730    0.60110    1.000
    P12      P        0.00000    0.18320    0.28837    1.000
    H12      H        0.00000    0.24760    0.21910    1.000
    O43      O        0.00000    0.20830    0.66680    1.000
    O44      O        0.00000    0.05720    0.25140    1.000
    Zn11     Zn       0.50000    0.61839    0.77572    1.000
    P13      P        0.50000    0.35520    0.08089    1.000
    H13      H        0.50000    0.47270    0.10110    1.000
    P14      P        0.50000    0.31680    0.78837    1.000
    H14      H        0.50000    0.25240    0.71910    1.000
    O45      O        0.50000    0.29170    0.16680    1.000
    O46      O        0.50000    0.44280    0.75140    1.000
    Zn12     Zn       0.00000    0.11839    0.77572    1.000
    P15      P        0.00000    0.85520    0.08089    1.000
    H15      H        0.00000    0.97270    0.10110    1.000
    P16      P        0.00000    0.81680    0.78837    1.000
    H16      H        0.00000    0.75240    0.71910    1.000
    O47      O        0.00000    0.79170    0.16680    1.000
    O48      O        0.00000    0.94280    0.75140    1.000
