# CIF file generated by openbabel 3.1.0, see https://openbabel.org
data_I
_chemical_name_common 'image0'
_cell_length_a 6.8904
_cell_length_b 21.8211
_cell_length_c 23.0642
_cell_angle_alpha 90
_cell_angle_beta 90
_cell_angle_gamma 90
_space_group_name_H-M_alt 'P 1'
_space_group_name_Hall 'P 1'
loop_
    _symmetry_equiv_pos_as_xyz
    x,y,z
loop_
    _atom_site_label
    _atom_site_type_symbol
    _atom_site_fract_x
    _atom_site_fract_y
    _atom_site_fract_z
    _atom_site_occupancy
    Sm1      Sm       0.57470    0.23229    0.04955    1.000
    O1       O        0.59280    0.30930    0.64840    1.000
    O2       O        0.56090    0.21050    0.63980    1.000
    C1       C        0.57820    0.25720    0.67100    1.000
    C2       C        0.57270    0.25180    0.73680    1.000
    C3       C        0.56600    0.19190    0.76000    1.000
    H1       H        0.56260    0.15750    0.73610    1.000
    C4       C        0.56480    0.18670    0.81920    1.000
    N1       N        0.51000    0.12470    0.84360    1.000
    O3       O        0.55200    0.11600    0.89490    1.000
    O4       O        0.44100    0.08580    0.81400    1.000
    C5       C        0.57180    0.23690    0.85640    1.000
    C6       C        0.57940    0.29550    0.83270    1.000
    H2       H        0.58390    0.33000    0.85640    1.000
    C7       C        0.58030    0.30080    0.77140    1.000
    H3       H        0.58620    0.33960    0.75490    1.000
    C8       C        0.57090    0.23280    0.92100    1.000
    O5       O        0.41240    0.22650    0.94680    1.000
    O6       O        0.72690    0.24110    0.94781    1.000
    O7       O        0.28720    0.35220    0.96320    1.000
    O8       O        0.54450    0.33550    0.01950    1.000
    C9       C        0.42620    0.36980    0.99330    1.000
    C10      C        0.46070    0.43750    0.99760    1.000
    C11      C        0.57410    0.46180    0.04110    1.000
    H4       H        0.62500    0.43630    0.06990    1.000
    C12      C        0.38800    0.47600    0.95630    1.000
    H5       H        0.31260    0.46040    0.92630    1.000
    N2       N        0.61700    0.12510    0.84310    1.000
    O9       O        0.64400    0.11970    0.89520    1.000
    O10      O        0.61700    0.08090    0.80950    1.000
    N3       N        0.60400    0.43050    0.10500    1.000
    O11      O        0.46900    0.41660    0.13420    1.000
    O12      O        0.77900    0.41790    0.10380    1.000
    Sm2      Sm       0.92530    0.76771    0.54955    1.000
    O13      O        0.90720    0.69070    0.14840    1.000
    O14      O        0.93910    0.78950    0.13980    1.000
    C13      C        0.92180    0.74280    0.17100    1.000
    C14      C        0.92730    0.74820    0.23680    1.000
    C15      C        0.93400    0.80810    0.26000    1.000
    H6       H        0.93740    0.84250    0.23610    1.000
    C16      C        0.93520    0.81330    0.31920    1.000
    N4       N        0.99000    0.87530    0.34360    1.000
    O15      O        0.94800    0.88400    0.39490    1.000
    O16      O        0.05900    0.91420    0.31400    1.000
    C17      C        0.92820    0.76310    0.35640    1.000
    C18      C        0.92060    0.70450    0.33270    1.000
    H7       H        0.91610    0.67000    0.35640    1.000
    C19      C        0.91970    0.69920    0.27140    1.000
    H8       H        0.91380    0.66040    0.25490    1.000
    C20      C        0.92910    0.76720    0.42100    1.000
    O17      O        0.08760    0.77350    0.44680    1.000
    O18      O        0.77310    0.75890    0.44781    1.000
    O19      O        0.21280    0.64780    0.46320    1.000
    O20      O        0.95550    0.66450    0.51950    1.000
    C21      C        0.07380    0.63020    0.49330    1.000
    C22      C        0.03930    0.56250    0.49760    1.000
    C23      C        0.92590    0.53820    0.54110    1.000
    H9       H        0.87500    0.56370    0.56990    1.000
    C24      C        0.11200    0.52400    0.45630    1.000
    H10      H        0.18740    0.53960    0.42630    1.000
    N5       N        0.88300    0.87490    0.34310    1.000
    O21      O        0.85600    0.88030    0.39520    1.000
    O22      O        0.88300    0.91910    0.30950    1.000
    N6       N        0.89600    0.56950    0.60500    1.000
    O23      O        0.03100    0.58340    0.63420    1.000
    O24      O        0.72100    0.58210    0.60380    1.000
    Sm3      Sm       0.42530    0.73229    0.45045    1.000
    O25      O        0.40720    0.80930    0.85160    1.000
    O26      O        0.43910    0.71050    0.86020    1.000
    C25      C        0.42180    0.75720    0.82900    1.000
    C26      C        0.42730    0.75180    0.76320    1.000
    C27      C        0.43400    0.69190    0.74000    1.000
    H11      H        0.43740    0.65750    0.76390    1.000
    C28      C        0.43520    0.68670    0.68080    1.000
    N7       N        0.49000    0.62470    0.65640    1.000
    O27      O        0.44800    0.61600    0.60510    1.000
    O28      O        0.55900    0.58580    0.68600    1.000
    C29      C        0.42820    0.73690    0.64360    1.000
    C30      C        0.42060    0.79550    0.66730    1.000
    H12      H        0.41610    0.83000    0.64360    1.000
    C31      C        0.41970    0.80080    0.72860    1.000
    H13      H        0.41380    0.83960    0.74510    1.000
    C32      C        0.42910    0.73280    0.57900    1.000
    O29      O        0.58760    0.72650    0.55320    1.000
    O30      O        0.27310    0.74110    0.55219    1.000
    O31      O        0.71280    0.85220    0.53680    1.000
    O32      O        0.45550    0.83550    0.48050    1.000
    C33      C        0.57380    0.86980    0.50670    1.000
    C34      C        0.53930    0.93750    0.50240    1.000
    C35      C        0.42590    0.96180    0.45890    1.000
    H14      H        0.37500    0.93630    0.43010    1.000
    C36      C        0.61200    0.97600    0.54370    1.000
    H15      H        0.68740    0.96040    0.57370    1.000
    N8       N        0.38300    0.62510    0.65690    1.000
    O33      O        0.35600    0.61970    0.60480    1.000
    O34      O        0.38300    0.58090    0.69050    1.000
    N9       N        0.39600    0.93050    0.39500    1.000
    O35      O        0.53100    0.91660    0.36580    1.000
    O36      O        0.22100    0.91790    0.39620    1.000
    Sm4      Sm       0.07470    0.26771    0.95045    1.000
    O37      O        0.09280    0.19070    0.35160    1.000
    O38      O        0.06090    0.28950    0.36020    1.000
    C37      C        0.07820    0.24280    0.32900    1.000
    C38      C        0.07270    0.24820    0.26320    1.000
    C39      C        0.06600    0.30810    0.24000    1.000
    H16      H        0.06260    0.34250    0.26390    1.000
    C40      C        0.06480    0.31330    0.18080    1.000
    N10      N        0.01000    0.37530    0.15640    1.000
    O39      O        0.05200    0.38400    0.10510    1.000
    O40      O        0.94100    0.41420    0.18600    1.000
    C41      C        0.07180    0.26310    0.14360    1.000
    C42      C        0.07940    0.20450    0.16730    1.000
    H17      H        0.08390    0.17000    0.14360    1.000
    C43      C        0.08030    0.19920    0.22860    1.000
    H18      H        0.08620    0.16040    0.24510    1.000
    C44      C        0.07090    0.26720    0.07900    1.000
    O41      O        0.91240    0.27350    0.05320    1.000
    O42      O        0.22690    0.25890    0.05219    1.000
    O43      O        0.78720    0.14780    0.03680    1.000
    O44      O        0.04450    0.16450    0.98050    1.000
    C45      C        0.92620    0.13020    0.00670    1.000
    C46      C        0.96070    0.06250    0.00240    1.000
    C47      C        0.07410    0.03820    0.95890    1.000
    H19      H        0.12500    0.06370    0.93010    1.000
    C48      C        0.88800    0.02400    0.04370    1.000
    H20      H        0.81260    0.03960    0.07370    1.000
    N11      N        0.11700    0.37490    0.15690    1.000
    O45      O        0.14400    0.38030    0.10480    1.000
    O46      O        0.11700    0.41910    0.19050    1.000
    N12      N        0.10400    0.06950    0.89500    1.000
    O47      O        0.96900    0.08340    0.86580    1.000
    O48      O        0.27900    0.08210    0.89620    1.000
    Sm5      Sm       0.42530    0.76771    0.95045    1.000
    O49      O        0.40720    0.69070    0.35160    1.000
    O50      O        0.43910    0.78950    0.36020    1.000
    C49      C        0.42180    0.74280    0.32900    1.000
    C50      C        0.42730    0.74820    0.26320    1.000
    C51      C        0.43400    0.80810    0.24000    1.000
    H21      H        0.43740    0.84250    0.26390    1.000
    C52      C        0.43520    0.81330    0.18080    1.000
    N13      N        0.49000    0.87530    0.15640    1.000
    O51      O        0.44800    0.88400    0.10510    1.000
    O52      O        0.55900    0.91420    0.18600    1.000
    C53      C        0.42820    0.76310    0.14360    1.000
    C54      C        0.42060    0.70450    0.16730    1.000
    H22      H        0.41610    0.67000    0.14360    1.000
    C55      C        0.41970    0.69920    0.22860    1.000
    H23      H        0.41380    0.66040    0.24510    1.000
    C56      C        0.42910    0.76720    0.07900    1.000
    O53      O        0.58760    0.77350    0.05320    1.000
    O54      O        0.27310    0.75890    0.05219    1.000
    O55      O        0.71280    0.64780    0.03680    1.000
    O56      O        0.45550    0.66450    0.98050    1.000
    C57      C        0.57380    0.63020    0.00670    1.000
    C58      C        0.53930    0.56250    0.00240    1.000
    C59      C        0.42590    0.53820    0.95890    1.000
    H24      H        0.37500    0.56370    0.93010    1.000
    C60      C        0.61200    0.52400    0.04370    1.000
    H25      H        0.68740    0.53960    0.07370    1.000
    N14      N        0.38300    0.87490    0.15690    1.000
    O57      O        0.35600    0.88030    0.10480    1.000
    O58      O        0.38300    0.91910    0.19050    1.000
    N15      N        0.39600    0.56950    0.89500    1.000
    O59      O        0.53100    0.58340    0.86580    1.000
    O60      O        0.22100    0.58210    0.89620    1.000
    Sm6      Sm       0.07470    0.23229    0.45045    1.000
    O61      O        0.09280    0.30930    0.85160    1.000
    O62      O        0.06090    0.21050    0.86020    1.000
    C61      C        0.07820    0.25720    0.82900    1.000
    C62      C        0.07270    0.25180    0.76320    1.000
    C63      C        0.06600    0.19190    0.74000    1.000
    H26      H        0.06260    0.15750    0.76390    1.000
    C64      C        0.06480    0.18670    0.68080    1.000
    N16      N        0.01000    0.12470    0.65640    1.000
    O63      O        0.05200    0.11600    0.60510    1.000
    O64      O        0.94100    0.08580    0.68600    1.000
    C65      C        0.07180    0.23690    0.64360    1.000
    C66      C        0.07940    0.29550    0.66730    1.000
    H27      H        0.08390    0.33000    0.64360    1.000
    C67      C        0.08030    0.30080    0.72860    1.000
    H28      H        0.08620    0.33960    0.74510    1.000
    C68      C        0.07090    0.23280    0.57900    1.000
    O65      O        0.91240    0.22650    0.55320    1.000
    O66      O        0.22690    0.24110    0.55219    1.000
    O67      O        0.78720    0.35220    0.53680    1.000
    O68      O        0.04450    0.33550    0.48050    1.000
    C69      C        0.92620    0.36980    0.50670    1.000
    C70      C        0.96070    0.43750    0.50240    1.000
    C71      C        0.07410    0.46180    0.45890    1.000
    H29      H        0.12500    0.43630    0.43010    1.000
    C72      C        0.88800    0.47600    0.54370    1.000
    H30      H        0.81260    0.46040    0.57370    1.000
    N17      N        0.11700    0.12510    0.65690    1.000
    O69      O        0.14400    0.11970    0.60480    1.000
    O70      O        0.11700    0.08090    0.69050    1.000
    N18      N        0.10400    0.43050    0.39500    1.000
    O71      O        0.96900    0.41660    0.36580    1.000
    O72      O        0.27900    0.41790    0.39620    1.000
    Sm7      Sm       0.57470    0.26771    0.54955    1.000
    O73      O        0.59280    0.19070    0.14840    1.000
    O74      O        0.56090    0.28950    0.13980    1.000
    C73      C        0.57820    0.24280    0.17100    1.000
    C74      C        0.57270    0.24820    0.23680    1.000
    C75      C        0.56600    0.30810    0.26000    1.000
    H31      H        0.56260    0.34250    0.23610    1.000
    C76      C        0.56480    0.31330    0.31920    1.000
    N19      N        0.51000    0.37530    0.34360    1.000
    O75      O        0.55200    0.38400    0.39490    1.000
    O76      O        0.44100    0.41420    0.31400    1.000
    C77      C        0.57180    0.26310    0.35640    1.000
    C78      C        0.57940    0.20450    0.33270    1.000
    H32      H        0.58390    0.17000    0.35640    1.000
    C79      C        0.58030    0.19920    0.27140    1.000
    H33      H        0.58620    0.16040    0.25490    1.000
    C80      C        0.57090    0.26720    0.42100    1.000
    O77      O        0.41240    0.27350    0.44680    1.000
    O78      O        0.72690    0.25890    0.44781    1.000
    O79      O        0.28720    0.14780    0.46320    1.000
    O80      O        0.54450    0.16450    0.51950    1.000
    C81      C        0.42620    0.13020    0.49330    1.000
    C82      C        0.46070    0.06250    0.49760    1.000
    C83      C        0.57410    0.03820    0.54110    1.000
    H34      H        0.62500    0.06370    0.56990    1.000
    C84      C        0.38800    0.02400    0.45630    1.000
    H35      H        0.31260    0.03960    0.42630    1.000
    N20      N        0.61700    0.37490    0.34310    1.000
    O81      O        0.64400    0.38030    0.39520    1.000
    O82      O        0.61700    0.41910    0.30950    1.000
    N21      N        0.60400    0.06950    0.60500    1.000
    O83      O        0.46900    0.08340    0.63420    1.000
    O84      O        0.77900    0.08210    0.60380    1.000
    Sm8      Sm       0.92530    0.73229    0.04955    1.000
    O85      O        0.90720    0.80930    0.64840    1.000
    O86      O        0.93910    0.71050    0.63980    1.000
    C85      C        0.92180    0.75720    0.67100    1.000
    C86      C        0.92730    0.75180    0.73680    1.000
    C87      C        0.93400    0.69190    0.76000    1.000
    H36      H        0.93740    0.65750    0.73610    1.000
    C88      C        0.93520    0.68670    0.81920    1.000
    N22      N        0.99000    0.62470    0.84360    1.000
    O87      O        0.94800    0.61600    0.89490    1.000
    O88      O        0.05900    0.58580    0.81400    1.000
    C89      C        0.92820    0.73690    0.85640    1.000
    C90      C        0.92060    0.79550    0.83270    1.000
    H37      H        0.91610    0.83000    0.85640    1.000
    C91      C        0.91970    0.80080    0.77140    1.000
    H38      H        0.91380    0.83960    0.75490    1.000
    C92      C        0.92910    0.73280    0.92100    1.000
    O89      O        0.08760    0.72650    0.94680    1.000
    O90      O        0.77310    0.74110    0.94781    1.000
    O91      O        0.21280    0.85220    0.96320    1.000
    O92      O        0.95550    0.83550    0.01950    1.000
    C93      C        0.07380    0.86980    0.99330    1.000
    C94      C        0.03930    0.93750    0.99760    1.000
    C95      C        0.92590    0.96180    0.04110    1.000
    H39      H        0.87500    0.93630    0.06990    1.000
    C96      C        0.11200    0.97600    0.95630    1.000
    H40      H        0.18740    0.96040    0.92630    1.000
    N23      N        0.88300    0.62510    0.84310    1.000
    O93      O        0.85600    0.61970    0.89520    1.000
    O94      O        0.88300    0.58090    0.80950    1.000
    N24      N        0.89600    0.93050    0.10500    1.000
    O95      O        0.03100    0.91660    0.13420    1.000
    O96      O        0.72100    0.91790    0.10380    1.000
