# CIF file generated by openbabel 3.1.0, see https://openbabel.org
data_I
_chemical_name_common 'image0'
_cell_length_a 18.4202
_cell_length_b 9.551
_cell_length_c 33.879
_cell_angle_alpha 90
_cell_angle_beta 92.718
_cell_angle_gamma 90
_space_group_name_H-M_alt 'P 1'
_space_group_name_Hall 'P 1'
loop_
    _symmetry_equiv_pos_as_xyz
    x,y,z
loop_
    _atom_site_label
    _atom_site_type_symbol
    _atom_site_fract_x
    _atom_site_fract_y
    _atom_site_fract_z
    _atom_site_occupancy
    Mn1      Mn       0.47987    0.64725    0.02827    1.000
    C1       C        0.61070    0.83150    0.05090    1.000
    C2       C        0.66600    0.87100    0.08330    1.000
    C3       C        0.71760    0.97160    0.07670    1.000
    H1       H        0.71720    0.01620    0.05230    1.000
    C4       C        0.76980    0.00780    0.10530    1.000
    H2       H        0.80540    0.07310    0.10000    1.000
    C5       C        0.76820    0.94560    0.14180    1.000
    C6       C        0.71600    0.84600    0.14950    1.000
    H3       H        0.71510    0.80500    0.17430    1.000
    C7       C        0.66580    0.80780    0.12010    1.000
    H4       H        0.63150    0.73920    0.12500    1.000
    C8       C        0.98710    0.81080    0.44990    1.000
    C9       C        0.96880    0.80510    0.40780    1.000
    C10      C        0.98390    0.91630    0.38260    1.000
    H5       H        0.00740    0.99520    0.39300    1.000
    C11      C        0.96520    0.91240    0.34330    1.000
    H6       H        0.97600    0.98690    0.32690    1.000
    C12      C        0.92940    0.79370    0.32810    1.000
    C13      C        0.91510    0.68280    0.35170    1.000
    H7       H        0.89240    0.60350    0.34110    1.000
    C14      C        0.93410    0.68810    0.39100    1.000
    H8       H        0.92370    0.61220    0.40700    1.000
    C15      C        0.56900    0.85190    0.41880    1.000
    C16      C        0.59830    0.91130    0.38200    1.000
    C17      C        0.62060    0.82160    0.35290    1.000
    H9       H        0.61330    0.72580    0.35550    1.000
    C18      C        0.65400    0.87330    0.31980    1.000
    H10      H        0.66780    0.81310    0.29990    1.000
    C19      C        0.66620    0.01560    0.31700    1.000
    C20      C        0.64070    0.10590    0.34500    1.000
    H11      H        0.64630    0.20210    0.34200    1.000
    C21      C        0.60690    0.05390    0.37750    1.000
    H12      H        0.58990    0.11500    0.39630    1.000
    C22      C        0.81530    0.96150    0.20890    1.000
    C23      C        0.86890    0.88690    0.22920    1.000
    H13      H        0.90720    0.84700    0.21630    1.000
    C24      C        0.86390    0.87320    0.26910    1.000
    C25      C        0.80780    0.93190    0.28920    1.000
    H14      H        0.80560    0.92100    0.31640    1.000
    C26      C        0.75570    0.00620    0.26810    1.000
    C27      C        0.75860    0.02430    0.22770    1.000
    H15      H        0.72360    0.07670    0.21360    1.000
    O1       O        0.59850    0.91890    0.02441    1.000
    O2       O        0.58200    0.71090    0.05311    1.000
    O3       O        0.01010    0.92510    0.46540    1.000
    O4       O        0.97530    0.70810    0.47258    1.000
    O5       O        0.56500    0.72120    0.42120    1.000
    O6       O        0.55160    0.93130    0.44610    1.000
    O7       O        0.82410    0.98250    0.16857    1.000
    O8       O        0.91550    0.78370    0.28772    1.000
    O9       O        0.69940    0.07530    0.28530    1.000
    Mn2      Mn       0.97987    0.14725    0.02827    1.000
    C28      C        0.11070    0.33150    0.05090    1.000
    C29      C        0.16600    0.37100    0.08330    1.000
    C30      C        0.21760    0.47160    0.07670    1.000
    H16      H        0.21720    0.51620    0.05230    1.000
    C31      C        0.26980    0.50780    0.10530    1.000
    H17      H        0.30540    0.57310    0.10000    1.000
    C32      C        0.26820    0.44560    0.14180    1.000
    C33      C        0.21600    0.34600    0.14950    1.000
    H18      H        0.21510    0.30500    0.17430    1.000
    C34      C        0.16580    0.30780    0.12010    1.000
    H19      H        0.13150    0.23920    0.12500    1.000
    C35      C        0.48710    0.31080    0.44990    1.000
    C36      C        0.46880    0.30510    0.40780    1.000
    C37      C        0.48390    0.41630    0.38260    1.000
    H20      H        0.50740    0.49520    0.39300    1.000
    C38      C        0.46520    0.41240    0.34330    1.000
    H21      H        0.47600    0.48690    0.32690    1.000
    C39      C        0.42940    0.29370    0.32810    1.000
    C40      C        0.41510    0.18280    0.35170    1.000
    H22      H        0.39240    0.10350    0.34110    1.000
    C41      C        0.43410    0.18810    0.39100    1.000
    H23      H        0.42370    0.11220    0.40700    1.000
    C42      C        0.06900    0.35190    0.41880    1.000
    C43      C        0.09830    0.41130    0.38200    1.000
    C44      C        0.12060    0.32160    0.35290    1.000
    H24      H        0.11330    0.22580    0.35550    1.000
    C45      C        0.15400    0.37330    0.31980    1.000
    H25      H        0.16780    0.31310    0.29990    1.000
    C46      C        0.16620    0.51560    0.31700    1.000
    C47      C        0.14070    0.60590    0.34500    1.000
    H26      H        0.14630    0.70210    0.34200    1.000
    C48      C        0.10690    0.55390    0.37750    1.000
    H27      H        0.08990    0.61500    0.39630    1.000
    C49      C        0.31530    0.46150    0.20890    1.000
    C50      C        0.36890    0.38690    0.22920    1.000
    H28      H        0.40720    0.34700    0.21630    1.000
    C51      C        0.36390    0.37320    0.26910    1.000
    C52      C        0.30780    0.43190    0.28920    1.000
    H29      H        0.30560    0.42100    0.31640    1.000
    C53      C        0.25570    0.50620    0.26810    1.000
    C54      C        0.25860    0.52430    0.22770    1.000
    H30      H        0.22360    0.57670    0.21360    1.000
    O10      O        0.09850    0.41890    0.02441    1.000
    O11      O        0.08200    0.21090    0.05311    1.000
    O12      O        0.51010    0.42510    0.46540    1.000
    O13      O        0.47530    0.20810    0.47258    1.000
    O14      O        0.06500    0.22120    0.42120    1.000
    O15      O        0.05160    0.43130    0.44610    1.000
    O16      O        0.32410    0.48250    0.16857    1.000
    O17      O        0.41550    0.28370    0.28772    1.000
    O18      O        0.19940    0.57530    0.28530    1.000
    Mn3      Mn       0.52013    0.64725    0.47173    1.000
    C55      C        0.38930    0.83150    0.44910    1.000
    C56      C        0.33400    0.87100    0.41670    1.000
    C57      C        0.28240    0.97160    0.42330    1.000
    H31      H        0.28280    0.01620    0.44770    1.000
    C58      C        0.23020    0.00780    0.39470    1.000
    H32      H        0.19460    0.07310    0.40000    1.000
    C59      C        0.23180    0.94560    0.35820    1.000
    C60      C        0.28400    0.84600    0.35050    1.000
    H33      H        0.28490    0.80500    0.32570    1.000
    C61      C        0.33420    0.80780    0.37990    1.000
    H34      H        0.36850    0.73920    0.37500    1.000
    C62      C        0.01290    0.81080    0.05010    1.000
    C63      C        0.03120    0.80510    0.09220    1.000
    C64      C        0.01610    0.91630    0.11740    1.000
    H35      H        0.99260    0.99520    0.10700    1.000
    C65      C        0.03480    0.91240    0.15670    1.000
    H36      H        0.02400    0.98690    0.17310    1.000
    C66      C        0.07060    0.79370    0.17190    1.000
    C67      C        0.08490    0.68280    0.14830    1.000
    H37      H        0.10760    0.60350    0.15890    1.000
    C68      C        0.06590    0.68810    0.10900    1.000
    H38      H        0.07630    0.61220    0.09300    1.000
    C69      C        0.43100    0.85190    0.08120    1.000
    C70      C        0.40170    0.91130    0.11800    1.000
    C71      C        0.37940    0.82160    0.14710    1.000
    H39      H        0.38670    0.72580    0.14450    1.000
    C72      C        0.34600    0.87330    0.18020    1.000
    H40      H        0.33220    0.81310    0.20010    1.000
    C73      C        0.33380    0.01560    0.18300    1.000
    C74      C        0.35930    0.10590    0.15500    1.000
    H41      H        0.35370    0.20210    0.15800    1.000
    C75      C        0.39310    0.05390    0.12250    1.000
    H42      H        0.41010    0.11500    0.10370    1.000
    C76      C        0.18470    0.96150    0.29110    1.000
    C77      C        0.13110    0.88690    0.27080    1.000
    H43      H        0.09280    0.84700    0.28370    1.000
    C78      C        0.13610    0.87320    0.23090    1.000
    C79      C        0.19220    0.93190    0.21080    1.000
    H44      H        0.19440    0.92100    0.18360    1.000
    C80      C        0.24430    0.00620    0.23190    1.000
    C81      C        0.24140    0.02430    0.27230    1.000
    H45      H        0.27640    0.07670    0.28640    1.000
    O19      O        0.40150    0.91890    0.47559    1.000
    O20      O        0.41800    0.71090    0.44689    1.000
    O21      O        0.98990    0.92510    0.03460    1.000
    O22      O        0.02470    0.70810    0.02742    1.000
    O23      O        0.43500    0.72120    0.07880    1.000
    O24      O        0.44840    0.93130    0.05390    1.000
    O25      O        0.17590    0.98250    0.33143    1.000
    O26      O        0.08450    0.78370    0.21228    1.000
    O27      O        0.30060    0.07530    0.21470    1.000
    Mn4      Mn       0.02013    0.14725    0.47173    1.000
    C82      C        0.88930    0.33150    0.44910    1.000
    C83      C        0.83400    0.37100    0.41670    1.000
    C84      C        0.78240    0.47160    0.42330    1.000
    H46      H        0.78280    0.51620    0.44770    1.000
    C85      C        0.73020    0.50780    0.39470    1.000
    H47      H        0.69460    0.57310    0.40000    1.000
    C86      C        0.73180    0.44560    0.35820    1.000
    C87      C        0.78400    0.34600    0.35050    1.000
    H48      H        0.78490    0.30500    0.32570    1.000
    C88      C        0.83420    0.30780    0.37990    1.000
    H49      H        0.86850    0.23920    0.37500    1.000
    C89      C        0.51290    0.31080    0.05010    1.000
    C90      C        0.53120    0.30510    0.09220    1.000
    C91      C        0.51610    0.41630    0.11740    1.000
    H50      H        0.49260    0.49520    0.10700    1.000
    C92      C        0.53480    0.41240    0.15670    1.000
    H51      H        0.52400    0.48690    0.17310    1.000
    C93      C        0.57060    0.29370    0.17190    1.000
    C94      C        0.58490    0.18280    0.14830    1.000
    H52      H        0.60760    0.10350    0.15890    1.000
    C95      C        0.56590    0.18810    0.10900    1.000
    H53      H        0.57630    0.11220    0.09300    1.000
    C96      C        0.93100    0.35190    0.08120    1.000
    C97      C        0.90170    0.41130    0.11800    1.000
    C98      C        0.87940    0.32160    0.14710    1.000
    H54      H        0.88670    0.22580    0.14450    1.000
    C99      C        0.84600    0.37330    0.18020    1.000
    H55      H        0.83220    0.31310    0.20010    1.000
    C100     C        0.83380    0.51560    0.18300    1.000
    C101     C        0.85930    0.60590    0.15500    1.000
    H56      H        0.85370    0.70210    0.15800    1.000
    C102     C        0.89310    0.55390    0.12250    1.000
    H57      H        0.91010    0.61500    0.10370    1.000
    C103     C        0.68470    0.46150    0.29110    1.000
    C104     C        0.63110    0.38690    0.27080    1.000
    H58      H        0.59280    0.34700    0.28370    1.000
    C105     C        0.63610    0.37320    0.23090    1.000
    C106     C        0.69220    0.43190    0.21080    1.000
    H59      H        0.69440    0.42100    0.18360    1.000
    C107     C        0.74430    0.50620    0.23190    1.000
    C108     C        0.74140    0.52430    0.27230    1.000
    H60      H        0.77640    0.57670    0.28640    1.000
    O28      O        0.90150    0.41890    0.47559    1.000
    O29      O        0.91800    0.21090    0.44689    1.000
    O30      O        0.48990    0.42510    0.03460    1.000
    O31      O        0.52470    0.20810    0.02742    1.000
    O32      O        0.93500    0.22120    0.07880    1.000
    O33      O        0.94840    0.43130    0.05390    1.000
    O34      O        0.67590    0.48250    0.33143    1.000
    O35      O        0.58450    0.28370    0.21228    1.000
    O36      O        0.80060    0.57530    0.21470    1.000
    Mn5      Mn       0.52013    0.35275    0.97173    1.000
    C109     C        0.38930    0.16850    0.94910    1.000
    C110     C        0.33400    0.12900    0.91670    1.000
    C111     C        0.28240    0.02840    0.92330    1.000
    H61      H        0.28280    0.98380    0.94770    1.000
    C112     C        0.23020    0.99220    0.89470    1.000
    H62      H        0.19460    0.92690    0.90000    1.000
    C113     C        0.23180    0.05440    0.85820    1.000
    C114     C        0.28400    0.15400    0.85050    1.000
    H63      H        0.28490    0.19500    0.82570    1.000
    C115     C        0.33420    0.19220    0.87990    1.000
    H64      H        0.36850    0.26080    0.87500    1.000
    C116     C        0.01290    0.18920    0.55010    1.000
    C117     C        0.03120    0.19490    0.59220    1.000
    C118     C        0.01610    0.08370    0.61740    1.000
    H65      H        0.99260    0.00480    0.60700    1.000
    C119     C        0.03480    0.08760    0.65670    1.000
    H66      H        0.02400    0.01310    0.67310    1.000
    C120     C        0.07060    0.20630    0.67190    1.000
    C121     C        0.08490    0.31720    0.64830    1.000
    H67      H        0.10760    0.39650    0.65890    1.000
    C122     C        0.06590    0.31190    0.60900    1.000
    H68      H        0.07630    0.38780    0.59300    1.000
    C123     C        0.43100    0.14810    0.58120    1.000
    C124     C        0.40170    0.08870    0.61800    1.000
    C125     C        0.37940    0.17840    0.64710    1.000
    H69      H        0.38670    0.27420    0.64450    1.000
    C126     C        0.34600    0.12670    0.68020    1.000
    H70      H        0.33220    0.18690    0.70010    1.000
    C127     C        0.33380    0.98440    0.68300    1.000
    C128     C        0.35930    0.89410    0.65500    1.000
    H71      H        0.35370    0.79790    0.65800    1.000
    C129     C        0.39310    0.94610    0.62250    1.000
    H72      H        0.41010    0.88500    0.60370    1.000
    C130     C        0.18470    0.03850    0.79110    1.000
    C131     C        0.13110    0.11310    0.77080    1.000
    H73      H        0.09280    0.15300    0.78370    1.000
    C132     C        0.13610    0.12680    0.73090    1.000
    C133     C        0.19220    0.06810    0.71080    1.000
    H74      H        0.19440    0.07900    0.68360    1.000
    C134     C        0.24430    0.99380    0.73190    1.000
    C135     C        0.24140    0.97570    0.77230    1.000
    H75      H        0.27640    0.92330    0.78640    1.000
    O37      O        0.40150    0.08110    0.97559    1.000
    O38      O        0.41800    0.28910    0.94689    1.000
    O39      O        0.98990    0.07490    0.53460    1.000
    O40      O        0.02470    0.29190    0.52742    1.000
    O41      O        0.43500    0.27880    0.57880    1.000
    O42      O        0.44840    0.06870    0.55390    1.000
    O43      O        0.17590    0.01750    0.83143    1.000
    O44      O        0.08450    0.21630    0.71228    1.000
    O45      O        0.30060    0.92470    0.71470    1.000
    Mn6      Mn       0.02013    0.85275    0.97173    1.000
    C136     C        0.88930    0.66850    0.94910    1.000
    C137     C        0.83400    0.62900    0.91670    1.000
    C138     C        0.78240    0.52840    0.92330    1.000
    H76      H        0.78280    0.48380    0.94770    1.000
    C139     C        0.73020    0.49220    0.89470    1.000
    H77      H        0.69460    0.42690    0.90000    1.000
    C140     C        0.73180    0.55440    0.85820    1.000
    C141     C        0.78400    0.65400    0.85050    1.000
    H78      H        0.78490    0.69500    0.82570    1.000
    C142     C        0.83420    0.69220    0.87990    1.000
    H79      H        0.86850    0.76080    0.87500    1.000
    C143     C        0.51290    0.68920    0.55010    1.000
    C144     C        0.53120    0.69490    0.59220    1.000
    C145     C        0.51610    0.58370    0.61740    1.000
    H80      H        0.49260    0.50480    0.60700    1.000
    C146     C        0.53480    0.58760    0.65670    1.000
    H81      H        0.52400    0.51310    0.67310    1.000
    C147     C        0.57060    0.70630    0.67190    1.000
    C148     C        0.58490    0.81720    0.64830    1.000
    H82      H        0.60760    0.89650    0.65890    1.000
    C149     C        0.56590    0.81190    0.60900    1.000
    H83      H        0.57630    0.88780    0.59300    1.000
    C150     C        0.93100    0.64810    0.58120    1.000
    C151     C        0.90170    0.58870    0.61800    1.000
    C152     C        0.87940    0.67840    0.64710    1.000
    H84      H        0.88670    0.77420    0.64450    1.000
    C153     C        0.84600    0.62670    0.68020    1.000
    H85      H        0.83220    0.68690    0.70010    1.000
    C154     C        0.83380    0.48440    0.68300    1.000
    C155     C        0.85930    0.39410    0.65500    1.000
    H86      H        0.85370    0.29790    0.65800    1.000
    C156     C        0.89310    0.44610    0.62250    1.000
    H87      H        0.91010    0.38500    0.60370    1.000
    C157     C        0.68470    0.53850    0.79110    1.000
    C158     C        0.63110    0.61310    0.77080    1.000
    H88      H        0.59280    0.65300    0.78370    1.000
    C159     C        0.63610    0.62680    0.73090    1.000
    C160     C        0.69220    0.56810    0.71080    1.000
    H89      H        0.69440    0.57900    0.68360    1.000
    C161     C        0.74430    0.49380    0.73190    1.000
    C162     C        0.74140    0.47570    0.77230    1.000
    H90      H        0.77640    0.42330    0.78640    1.000
    O46      O        0.90150    0.58110    0.97559    1.000
    O47      O        0.91800    0.78910    0.94689    1.000
    O48      O        0.48990    0.57490    0.53460    1.000
    O49      O        0.52470    0.79190    0.52742    1.000
    O50      O        0.93500    0.77880    0.57880    1.000
    O51      O        0.94840    0.56870    0.55390    1.000
    O52      O        0.67590    0.51750    0.83143    1.000
    O53      O        0.58450    0.71630    0.71228    1.000
    O54      O        0.80060    0.42470    0.71470    1.000
    Mn7      Mn       0.47987    0.35275    0.52827    1.000
    C163     C        0.61070    0.16850    0.55090    1.000
    C164     C        0.66600    0.12900    0.58330    1.000
    C165     C        0.71760    0.02840    0.57670    1.000
    H91      H        0.71720    0.98380    0.55230    1.000
    C166     C        0.76980    0.99220    0.60530    1.000
    H92      H        0.80540    0.92690    0.60000    1.000
    C167     C        0.76820    0.05440    0.64180    1.000
    C168     C        0.71600    0.15400    0.64950    1.000
    H93      H        0.71510    0.19500    0.67430    1.000
    C169     C        0.66580    0.19220    0.62010    1.000
    H94      H        0.63150    0.26080    0.62500    1.000
    C170     C        0.98710    0.18920    0.94990    1.000
    C171     C        0.96880    0.19490    0.90780    1.000
    C172     C        0.98390    0.08370    0.88260    1.000
    H95      H        0.00740    0.00480    0.89300    1.000
    C173     C        0.96520    0.08760    0.84330    1.000
    H96      H        0.97600    0.01310    0.82690    1.000
    C174     C        0.92940    0.20630    0.82810    1.000
    C175     C        0.91510    0.31720    0.85170    1.000
    H97      H        0.89240    0.39650    0.84110    1.000
    C176     C        0.93410    0.31190    0.89100    1.000
    H98      H        0.92370    0.38780    0.90700    1.000
    C177     C        0.56900    0.14810    0.91880    1.000
    C178     C        0.59830    0.08870    0.88200    1.000
    C179     C        0.62060    0.17840    0.85290    1.000
    H99      H        0.61330    0.27420    0.85550    1.000
    C180     C        0.65400    0.12670    0.81980    1.000
    H100     H        0.66780    0.18690    0.79990    1.000
    C181     C        0.66620    0.98440    0.81700    1.000
    C182     C        0.64070    0.89410    0.84500    1.000
    H101     H        0.64630    0.79790    0.84200    1.000
    C183     C        0.60690    0.94610    0.87750    1.000
    H102     H        0.58990    0.88500    0.89630    1.000
    C184     C        0.81530    0.03850    0.70890    1.000
    C185     C        0.86890    0.11310    0.72920    1.000
    H103     H        0.90720    0.15300    0.71630    1.000
    C186     C        0.86390    0.12680    0.76910    1.000
    C187     C        0.80780    0.06810    0.78920    1.000
    H104     H        0.80560    0.07900    0.81640    1.000
    C188     C        0.75570    0.99380    0.76810    1.000
    C189     C        0.75860    0.97570    0.72770    1.000
    H105     H        0.72360    0.92330    0.71360    1.000
    O55      O        0.59850    0.08110    0.52441    1.000
    O56      O        0.58200    0.28910    0.55311    1.000
    O57      O        0.01010    0.07490    0.96540    1.000
    O58      O        0.97530    0.29190    0.97258    1.000
    O59      O        0.56500    0.27880    0.92120    1.000
    O60      O        0.55160    0.06870    0.94610    1.000
    O61      O        0.82410    0.01750    0.66857    1.000
    O62      O        0.91550    0.21630    0.78772    1.000
    O63      O        0.69940    0.92470    0.78530    1.000
    Mn8      Mn       0.97987    0.85275    0.52827    1.000
    C190     C        0.11070    0.66850    0.55090    1.000
    C191     C        0.16600    0.62900    0.58330    1.000
    C192     C        0.21760    0.52840    0.57670    1.000
    H106     H        0.21720    0.48380    0.55230    1.000
    C193     C        0.26980    0.49220    0.60530    1.000
    H107     H        0.30540    0.42690    0.60000    1.000
    C194     C        0.26820    0.55440    0.64180    1.000
    C195     C        0.21600    0.65400    0.64950    1.000
    H108     H        0.21510    0.69500    0.67430    1.000
    C196     C        0.16580    0.69220    0.62010    1.000
    H109     H        0.13150    0.76080    0.62500    1.000
    C197     C        0.48710    0.68920    0.94990    1.000
    C198     C        0.46880    0.69490    0.90780    1.000
    C199     C        0.48390    0.58370    0.88260    1.000
    H110     H        0.50740    0.50480    0.89300    1.000
    C200     C        0.46520    0.58760    0.84330    1.000
    H111     H        0.47600    0.51310    0.82690    1.000
    C201     C        0.42940    0.70630    0.82810    1.000
    C202     C        0.41510    0.81720    0.85170    1.000
    H112     H        0.39240    0.89650    0.84110    1.000
    C203     C        0.43410    0.81190    0.89100    1.000
    H113     H        0.42370    0.88780    0.90700    1.000
    C204     C        0.06900    0.64810    0.91880    1.000
    C205     C        0.09830    0.58870    0.88200    1.000
    C206     C        0.12060    0.67840    0.85290    1.000
    H114     H        0.11330    0.77420    0.85550    1.000
    C207     C        0.15400    0.62670    0.81980    1.000
    H115     H        0.16780    0.68690    0.79990    1.000
    C208     C        0.16620    0.48440    0.81700    1.000
    C209     C        0.14070    0.39410    0.84500    1.000
    H116     H        0.14630    0.29790    0.84200    1.000
    C210     C        0.10690    0.44610    0.87750    1.000
    H117     H        0.08990    0.38500    0.89630    1.000
    C211     C        0.31530    0.53850    0.70890    1.000
    C212     C        0.36890    0.61310    0.72920    1.000
    H118     H        0.40720    0.65300    0.71630    1.000
    C213     C        0.36390    0.62680    0.76910    1.000
    C214     C        0.30780    0.56810    0.78920    1.000
    H119     H        0.30560    0.57900    0.81640    1.000
    C215     C        0.25570    0.49380    0.76810    1.000
    C216     C        0.25860    0.47570    0.72770    1.000
    H120     H        0.22360    0.42330    0.71360    1.000
    O64      O        0.09850    0.58110    0.52441    1.000
    O65      O        0.08200    0.78910    0.55311    1.000
    O66      O        0.51010    0.57490    0.96540    1.000
    O67      O        0.47530    0.79190    0.97258    1.000
    O68      O        0.06500    0.77880    0.92120    1.000
    O69      O        0.05160    0.56870    0.94610    1.000
    O70      O        0.32410    0.51750    0.66857    1.000
    O71      O        0.41550    0.71630    0.78772    1.000
    O72      O        0.19940    0.42470    0.78530    1.000
    Mn9      Mn       0.50000    0.00000    0.00000    1.000
    Mn10     Mn       0.00000    0.50000    0.00000    1.000
    Mn11     Mn       0.50000    0.00000    0.50000    1.000
    Mn12     Mn       0.00000    0.50000    0.50000    1.000
