# CIF file generated by openbabel 3.1.0, see https://openbabel.org
data_I
_chemical_name_common 'image0'
_cell_length_a 18.5068
_cell_length_b 11.426
_cell_length_c 19.0321
_cell_angle_alpha 90
_cell_angle_beta 108.341
_cell_angle_gamma 90
_space_group_name_H-M_alt 'P 1'
_space_group_name_Hall 'P 1'
loop_
    _symmetry_equiv_pos_as_xyz
    x,y,z
loop_
    _atom_site_label
    _atom_site_type_symbol
    _atom_site_fract_x
    _atom_site_fract_y
    _atom_site_fract_z
    _atom_site_occupancy
    C1       C        0.89777    0.82710    0.92695    1.000
    C2       C        0.83019    0.75270    0.88941    1.000
    C3       C        0.79289    0.69770    0.93336    1.000
    H1       H        0.81390    0.70170    0.98460    1.000
    C4       C        0.72576    0.63750    0.90325    1.000
    H2       H        0.70130    0.60280    0.93380    1.000
    C5       C        0.69483    0.62920    0.82647    1.000
    C6       C        0.73270    0.67900    0.78204    1.000
    H3       H        0.71280    0.67050    0.73100    1.000
    C7       C        0.80020    0.74190    0.81188    1.000
    C8       C        0.61984    0.56890    0.79237    1.000
    C9       C        0.88263    0.15600    0.96931    1.000
    C10      C        0.81452    0.20630    0.98521    1.000
    C11      C        0.79106    0.15980    0.04168    1.000
    H4       H        0.81910    0.09940    0.07030    1.000
    N1       N        0.83350    0.78930    0.76319    1.000
    H5       H        0.81500    0.79300    0.71560    1.000
    H6       H        0.86700    0.84300    0.77900    1.000
    O1       O        0.92463    0.89160    0.88782    1.000
    O2       O        0.92323    0.82250    0.99635    1.000
    O3       O        0.58927    0.52055    0.83596    1.000
    O4       O        0.59184    0.56810    0.72395    1.000
    O5       O        0.91949    0.07355    0.00797    1.000
    O6       O        0.90051    0.19650    0.91595    1.000
    Ce1      Ce       0.00045    0.06549    0.89850    1.000
    C12      C        0.72683    0.20090    0.05684    1.000
    N2       N        0.70670    0.14300    0.11190    1.000
    H7       H        0.67900    0.17000    0.13500    1.000
    H8       H        0.71800    0.07200    0.12500    1.000
    H9       H        0.72000    0.17700    0.10000    1.000
    C13      C        0.39777    0.32710    0.92695    1.000
    C14      C        0.33019    0.25270    0.88941    1.000
    C15      C        0.29289    0.19770    0.93336    1.000
    H10      H        0.31390    0.20170    0.98460    1.000
    C16      C        0.22576    0.13750    0.90325    1.000
    H11      H        0.20130    0.10280    0.93380    1.000
    C17      C        0.19483    0.12920    0.82647    1.000
    C18      C        0.23270    0.17900    0.78204    1.000
    H12      H        0.21280    0.17050    0.73100    1.000
    C19      C        0.30020    0.24190    0.81188    1.000
    C20      C        0.11984    0.06890    0.79237    1.000
    C21      C        0.38263    0.65600    0.96931    1.000
    C22      C        0.31452    0.70630    0.98521    1.000
    C23      C        0.29106    0.65980    0.04168    1.000
    H13      H        0.31910    0.59940    0.07030    1.000
    N3       N        0.33350    0.28930    0.76319    1.000
    H14      H        0.31500    0.29300    0.71560    1.000
    H15      H        0.36700    0.34300    0.77900    1.000
    O7       O        0.42463    0.39160    0.88782    1.000
    O8       O        0.42323    0.32250    0.99635    1.000
    O9       O        0.08927    0.02055    0.83596    1.000
    O10      O        0.09184    0.06810    0.72395    1.000
    O11      O        0.41949    0.57355    0.00797    1.000
    O12      O        0.40051    0.69650    0.91595    1.000
    Ce2      Ce       0.50045    0.56549    0.89850    1.000
    C24      C        0.22683    0.70090    0.05684    1.000
    N4       N        0.20670    0.64300    0.11190    1.000
    H16      H        0.17900    0.67000    0.13500    1.000
    H17      H        0.21800    0.57200    0.12500    1.000
    H18      H        0.22000    0.67700    0.10000    1.000
    C25      C        0.10223    0.82710    0.57305    1.000
    C26      C        0.16981    0.75270    0.61059    1.000
    C27      C        0.20711    0.69770    0.56664    1.000
    H19      H        0.18610    0.70170    0.51540    1.000
    C28      C        0.27424    0.63750    0.59675    1.000
    H20      H        0.29870    0.60280    0.56620    1.000
    C29      C        0.30517    0.62920    0.67353    1.000
    C30      C        0.26730    0.67900    0.71796    1.000
    H21      H        0.28720    0.67050    0.76900    1.000
    C31      C        0.19980    0.74190    0.68812    1.000
    C32      C        0.38016    0.56890    0.70763    1.000
    C33      C        0.11737    0.15600    0.53069    1.000
    C34      C        0.18548    0.20630    0.51479    1.000
    C35      C        0.20894    0.15980    0.45832    1.000
    H22      H        0.18090    0.09940    0.42970    1.000
    N5       N        0.16650    0.78930    0.73681    1.000
    H23      H        0.18500    0.79300    0.78440    1.000
    H24      H        0.13300    0.84300    0.72100    1.000
    O13      O        0.07537    0.89160    0.61218    1.000
    O14      O        0.07677    0.82250    0.50365    1.000
    O15      O        0.41073    0.52055    0.66404    1.000
    O16      O        0.40816    0.56810    0.77605    1.000
    O17      O        0.08051    0.07355    0.49203    1.000
    O18      O        0.09949    0.19650    0.58405    1.000
    Ce3      Ce       0.99955    0.06549    0.60150    1.000
    C36      C        0.27317    0.20090    0.44316    1.000
    N6       N        0.29330    0.14300    0.38810    1.000
    H25      H        0.32100    0.17000    0.36500    1.000
    H26      H        0.28200    0.07200    0.37500    1.000
    H27      H        0.28000    0.17700    0.40000    1.000
    C37      C        0.60223    0.32710    0.57305    1.000
    C38      C        0.66981    0.25270    0.61059    1.000
    C39      C        0.70711    0.19770    0.56664    1.000
    H28      H        0.68610    0.20170    0.51540    1.000
    C40      C        0.77424    0.13750    0.59675    1.000
    H29      H        0.79870    0.10280    0.56620    1.000
    C41      C        0.80517    0.12920    0.67353    1.000
    C42      C        0.76730    0.17900    0.71796    1.000
    H30      H        0.78720    0.17050    0.76900    1.000
    C43      C        0.69980    0.24190    0.68812    1.000
    C44      C        0.88016    0.06890    0.70763    1.000
    C45      C        0.61737    0.65600    0.53069    1.000
    C46      C        0.68548    0.70630    0.51479    1.000
    C47      C        0.70894    0.65980    0.45832    1.000
    H31      H        0.68090    0.59940    0.42970    1.000
    N7       N        0.66650    0.28930    0.73681    1.000
    H32      H        0.68500    0.29300    0.78440    1.000
    H33      H        0.63300    0.34300    0.72100    1.000
    O19      O        0.57537    0.39160    0.61218    1.000
    O20      O        0.57677    0.32250    0.50365    1.000
    O21      O        0.91073    0.02055    0.66404    1.000
    O22      O        0.90816    0.06810    0.77605    1.000
    O23      O        0.58051    0.57355    0.49203    1.000
    O24      O        0.59949    0.69650    0.58405    1.000
    Ce4      Ce       0.49955    0.56549    0.60150    1.000
    C48      C        0.77317    0.70090    0.44316    1.000
    N8       N        0.79330    0.64300    0.38810    1.000
    H34      H        0.82100    0.67000    0.36500    1.000
    H35      H        0.78200    0.57200    0.37500    1.000
    H36      H        0.78000    0.67700    0.40000    1.000
    C49      C        0.10223    0.17290    0.07305    1.000
    C50      C        0.16981    0.24730    0.11059    1.000
    C51      C        0.20711    0.30230    0.06664    1.000
    H37      H        0.18610    0.29830    0.01540    1.000
    C52      C        0.27424    0.36250    0.09675    1.000
    H38      H        0.29870    0.39720    0.06620    1.000
    C53      C        0.30517    0.37080    0.17353    1.000
    C54      C        0.26730    0.32100    0.21796    1.000
    H39      H        0.28720    0.32950    0.26900    1.000
    C55      C        0.19980    0.25810    0.18812    1.000
    C56      C        0.38016    0.43110    0.20763    1.000
    C57      C        0.11737    0.84400    0.03069    1.000
    C58      C        0.18548    0.79370    0.01479    1.000
    C59      C        0.20894    0.84020    0.95832    1.000
    H40      H        0.18090    0.90060    0.92970    1.000
    N9       N        0.16650    0.21070    0.23681    1.000
    H41      H        0.18500    0.20700    0.28440    1.000
    H42      H        0.13300    0.15700    0.22100    1.000
    O25      O        0.07537    0.10840    0.11218    1.000
    O26      O        0.07677    0.17750    0.00365    1.000
    O27      O        0.41073    0.47945    0.16404    1.000
    O28      O        0.40816    0.43190    0.27605    1.000
    O29      O        0.08051    0.92645    0.99203    1.000
    O30      O        0.09949    0.80350    0.08405    1.000
    Ce5      Ce       0.99955    0.93451    0.10150    1.000
    C60      C        0.27317    0.79910    0.94316    1.000
    N10      N        0.29330    0.85700    0.88810    1.000
    H43      H        0.32100    0.83000    0.86500    1.000
    H44      H        0.28200    0.92800    0.87500    1.000
    H45      H        0.28000    0.82300    0.90000    1.000
    C61      C        0.60223    0.67290    0.07305    1.000
    C62      C        0.66981    0.74730    0.11059    1.000
    C63      C        0.70711    0.80230    0.06664    1.000
    H46      H        0.68610    0.79830    0.01540    1.000
    C64      C        0.77424    0.86250    0.09675    1.000
    H47      H        0.79870    0.89720    0.06620    1.000
    C65      C        0.80517    0.87080    0.17353    1.000
    C66      C        0.76730    0.82100    0.21796    1.000
    H48      H        0.78720    0.82950    0.26900    1.000
    C67      C        0.69980    0.75810    0.18812    1.000
    C68      C        0.88016    0.93110    0.20763    1.000
    C69      C        0.61737    0.34400    0.03069    1.000
    C70      C        0.68548    0.29370    0.01479    1.000
    C71      C        0.70894    0.34020    0.95832    1.000
    H49      H        0.68090    0.40060    0.92970    1.000
    N11      N        0.66650    0.71070    0.23681    1.000
    H50      H        0.68500    0.70700    0.28440    1.000
    H51      H        0.63300    0.65700    0.22100    1.000
    O31      O        0.57537    0.60840    0.11218    1.000
    O32      O        0.57677    0.67750    0.00365    1.000
    O33      O        0.91073    0.97945    0.16404    1.000
    O34      O        0.90816    0.93190    0.27605    1.000
    O35      O        0.58051    0.42645    0.99203    1.000
    O36      O        0.59949    0.30350    0.08405    1.000
    Ce6      Ce       0.49955    0.43451    0.10150    1.000
    C72      C        0.77317    0.29910    0.94316    1.000
    N12      N        0.79330    0.35700    0.88810    1.000
    H52      H        0.82100    0.33000    0.86500    1.000
    H53      H        0.78200    0.42800    0.87500    1.000
    H54      H        0.78000    0.32300    0.90000    1.000
    C73      C        0.89777    0.17290    0.42695    1.000
    C74      C        0.83019    0.24730    0.38941    1.000
    C75      C        0.79289    0.30230    0.43336    1.000
    H55      H        0.81390    0.29830    0.48460    1.000
    C76      C        0.72576    0.36250    0.40325    1.000
    H56      H        0.70130    0.39720    0.43380    1.000
    C77      C        0.69483    0.37080    0.32647    1.000
    C78      C        0.73270    0.32100    0.28204    1.000
    H57      H        0.71280    0.32950    0.23100    1.000
    C79      C        0.80020    0.25810    0.31188    1.000
    C80      C        0.61984    0.43110    0.29237    1.000
    C81      C        0.88263    0.84400    0.46931    1.000
    C82      C        0.81452    0.79370    0.48521    1.000
    C83      C        0.79106    0.84020    0.54168    1.000
    H58      H        0.81910    0.90060    0.57030    1.000
    N13      N        0.83350    0.21070    0.26319    1.000
    H59      H        0.81500    0.20700    0.21560    1.000
    H60      H        0.86700    0.15700    0.27900    1.000
    O37      O        0.92463    0.10840    0.38782    1.000
    O38      O        0.92323    0.17750    0.49635    1.000
    O39      O        0.58927    0.47945    0.33596    1.000
    O40      O        0.59184    0.43190    0.22395    1.000
    O41      O        0.91949    0.92645    0.50797    1.000
    O42      O        0.90051    0.80350    0.41595    1.000
    Ce7      Ce       0.00045    0.93451    0.39850    1.000
    C84      C        0.72683    0.79910    0.55684    1.000
    N14      N        0.70670    0.85700    0.61190    1.000
    H61      H        0.67900    0.83000    0.63500    1.000
    H62      H        0.71800    0.92800    0.62500    1.000
    H63      H        0.72000    0.82300    0.60000    1.000
    C85      C        0.39777    0.67290    0.42695    1.000
    C86      C        0.33019    0.74730    0.38941    1.000
    C87      C        0.29289    0.80230    0.43336    1.000
    H64      H        0.31390    0.79830    0.48460    1.000
    C88      C        0.22576    0.86250    0.40325    1.000
    H65      H        0.20130    0.89720    0.43380    1.000
    C89      C        0.19483    0.87080    0.32647    1.000
    C90      C        0.23270    0.82100    0.28204    1.000
    H66      H        0.21280    0.82950    0.23100    1.000
    C91      C        0.30020    0.75810    0.31188    1.000
    C92      C        0.11984    0.93110    0.29237    1.000
    C93      C        0.38263    0.34400    0.46931    1.000
    C94      C        0.31452    0.29370    0.48521    1.000
    C95      C        0.29106    0.34020    0.54168    1.000
    H67      H        0.31910    0.40060    0.57030    1.000
    N15      N        0.33350    0.71070    0.26319    1.000
    H68      H        0.31500    0.70700    0.21560    1.000
    H69      H        0.36700    0.65700    0.27900    1.000
    O43      O        0.42463    0.60840    0.38782    1.000
    O44      O        0.42323    0.67750    0.49635    1.000
    O45      O        0.08927    0.97945    0.33596    1.000
    O46      O        0.09184    0.93190    0.22395    1.000
    O47      O        0.41949    0.42645    0.50797    1.000
    O48      O        0.40051    0.30350    0.41595    1.000
    Ce8      Ce       0.50045    0.43451    0.39850    1.000
    C96      C        0.22683    0.29910    0.55684    1.000
    N16      N        0.20670    0.35700    0.61190    1.000
    H70      H        0.17900    0.33000    0.63500    1.000
    H71      H        0.21800    0.42800    0.62500    1.000
    H72      H        0.22000    0.32300    0.60000    1.000
