# CIF file generated by openbabel 3.1.0, see https://openbabel.org
data_I
_chemical_name_common 'image0'
_cell_length_a 8.1446
_cell_length_b 20.2603
_cell_length_c 8.8515
_cell_angle_alpha 90
_cell_angle_beta 90.061
_cell_angle_gamma 90
_space_group_name_H-M_alt 'P 1'
_space_group_name_Hall 'P 1'
loop_
    _symmetry_equiv_pos_as_xyz
    x,y,z
loop_
    _atom_site_label
    _atom_site_type_symbol
    _atom_site_fract_x
    _atom_site_fract_y
    _atom_site_fract_z
    _atom_site_occupancy
    N1       N        0.85700    0.91870    0.90450    1.000
    N2       N        0.68800    0.91400    0.91230    1.000
    N3       N        0.79100    0.82140    0.83100    1.000
    N4       N        0.82170    0.75661    0.77450    1.000
    N5       N        0.69200    0.72924    0.77610    1.000
    N6       N        0.72320    0.66446    0.71640    1.000
    N7       N        0.64900    0.57345    0.61430    1.000
    N8       N        0.81910    0.57841    0.60190    1.000
    N9       N        0.16250    0.99635    0.80420    1.000
    N10      N        0.08530    0.99584    0.66400    1.000
    N11      N        0.34900    0.99880    0.63100    1.000
    N12      N        0.50370    0.00117    0.56980    1.000
    C1       C        0.91340    0.86310    0.85430    1.000
    C2       C        0.65260    0.85420    0.86760    1.000
    C3       C        0.85830    0.63430    0.66270    1.000
    C4       C        0.59670    0.62520    0.68360    1.000
    C5       C        0.31950    0.99851    0.78150    1.000
    C6       C        0.19960    0.99800    0.56320    1.000
    H1       H        0.02600    0.85200    0.83400    1.000
    H2       H        0.56100    0.83960    0.85000    1.000
    H3       H        0.96900    0.64680    0.67300    1.000
    H4       H        0.49700    0.63200    0.70500    1.000
    H5       H        0.39700    0.99930    0.85500    1.000
    H6       H        0.18200    0.99700    0.46700    1.000
    N13      N        0.64300    0.41870    0.59550    1.000
    N14      N        0.81200    0.41400    0.58770    1.000
    N15      N        0.70900    0.32140    0.66900    1.000
    N16      N        0.67830    0.25661    0.72550    1.000
    N17      N        0.80800    0.22924    0.72390    1.000
    N18      N        0.77680    0.16446    0.78360    1.000
    N19      N        0.85100    0.07345    0.88570    1.000
    N20      N        0.68090    0.07841    0.89810    1.000
    N21      N        0.33750    0.49635    0.69580    1.000
    N22      N        0.41470    0.49584    0.83600    1.000
    N23      N        0.15100    0.49880    0.86900    1.000
    N24      N        0.99630    0.50117    0.93020    1.000
    C7       C        0.58660    0.36310    0.64570    1.000
    C8       C        0.84740    0.35420    0.63240    1.000
    C9       C        0.64170    0.13430    0.83730    1.000
    C10      C        0.90330    0.12520    0.81640    1.000
    C11      C        0.18050    0.49851    0.71850    1.000
    C12      C        0.30040    0.49800    0.93680    1.000
    H7       H        0.47400    0.35200    0.66600    1.000
    H8       H        0.93900    0.33960    0.65000    1.000
    H9       H        0.53100    0.14680    0.82700    1.000
    H10      H        0.00300    0.13200    0.79500    1.000
    H11      H        0.10300    0.49930    0.64500    1.000
    H12      H        0.31800    0.49700    0.03300    1.000
    N25      N        0.14300    0.08130    0.09550    1.000
    N26      N        0.31200    0.08600    0.08770    1.000
    N27      N        0.20900    0.17860    0.16900    1.000
    N28      N        0.17830    0.24339    0.22550    1.000
    N29      N        0.30800    0.27076    0.22390    1.000
    N30      N        0.27680    0.33554    0.28360    1.000
    N31      N        0.35100    0.42655    0.38570    1.000
    N32      N        0.18090    0.42159    0.39810    1.000
    N33      N        0.83750    0.00365    0.19580    1.000
    N34      N        0.91470    0.00416    0.33600    1.000
    N35      N        0.65100    0.00120    0.36900    1.000
    N36      N        0.49630    0.99883    0.43020    1.000
    C13      C        0.08660    0.13690    0.14570    1.000
    C14      C        0.34740    0.14580    0.13240    1.000
    C15      C        0.14170    0.36570    0.33730    1.000
    C16      C        0.40330    0.37480    0.31640    1.000
    C17      C        0.68050    0.00149    0.21850    1.000
    C18      C        0.80040    0.00200    0.43680    1.000
    H13      H        0.97400    0.14800    0.16600    1.000
    H14      H        0.43900    0.16040    0.15000    1.000
    H15      H        0.03100    0.35320    0.32700    1.000
    H16      H        0.50300    0.36800    0.29500    1.000
    H17      H        0.60300    0.00070    0.14500    1.000
    H18      H        0.81800    0.00300    0.53300    1.000
    N37      N        0.35700    0.58130    0.40450    1.000
    N38      N        0.18800    0.58600    0.41230    1.000
    N39      N        0.29100    0.67860    0.33100    1.000
    N40      N        0.32170    0.74339    0.27450    1.000
    N41      N        0.19200    0.77076    0.27610    1.000
    N42      N        0.22320    0.83554    0.21640    1.000
    N43      N        0.14900    0.92655    0.11430    1.000
    N44      N        0.31910    0.92159    0.10190    1.000
    N45      N        0.66250    0.50365    0.30420    1.000
    N46      N        0.58530    0.50416    0.16400    1.000
    N47      N        0.84900    0.50120    0.13100    1.000
    N48      N        0.00370    0.49883    0.06980    1.000
    C19      C        0.41340    0.63690    0.35430    1.000
    C20      C        0.15260    0.64580    0.36760    1.000
    C21      C        0.35830    0.86570    0.16270    1.000
    C22      C        0.09670    0.87480    0.18360    1.000
    C23      C        0.81950    0.50149    0.28150    1.000
    C24      C        0.69960    0.50200    0.06320    1.000
    H19      H        0.52600    0.64800    0.33400    1.000
    H20      H        0.06100    0.66040    0.35000    1.000
    H21      H        0.46900    0.85320    0.17300    1.000
    H22      H        0.99700    0.86800    0.20500    1.000
    H23      H        0.89700    0.50070    0.35500    1.000
    H24      H        0.68200    0.50300    0.96700    1.000
    Fe1      Fe       0.00000    0.00000    0.00000    1.000
    Fe2      Fe       0.50000    0.50000    0.50000    1.000
