# CIF file generated by openbabel 3.1.0, see https://openbabel.org
data_I
_chemical_name_common 'TOZHAR_clean'
_cell_length_a 8.2221
_cell_length_b 9.441
_cell_length_c 11.932
_cell_angle_alpha 90
_cell_angle_beta 90
_cell_angle_gamma 90
_space_group_name_H-M_alt 'P 1'
_space_group_name_Hall 'P 1'
loop_
    _symmetry_equiv_pos_as_xyz
    x,y,z
loop_
    _atom_site_label
    _atom_site_type_symbol
    _atom_site_fract_x
    _atom_site_fract_y
    _atom_site_fract_z
    _atom_site_occupancy
    Ag1      Ag       0.29460    0.11060    0.18180    1.000
    Ag2      Ag       0.79460    0.88940    0.81820    1.000
    Ag3      Ag       0.29460    0.38940    0.68180    1.000
    Ag4      Ag       0.79460    0.61060    0.31820    1.000
    H1       H        0.26720    0.20930    0.44470    1.000
    H2       H        0.56150    0.32100    0.20690    1.000
    H3       H        0.54090    0.53510    0.51690    1.000
    H4       H        0.76720    0.79070    0.55530    1.000
    H5       H        0.06150    0.67900    0.79310    1.000
    H6       H        0.04090    0.46490    0.48310    1.000
    H7       H        0.26720    0.29070    0.94470    1.000
    H8       H        0.56150    0.17900    0.70690    1.000
    H9       H        0.54090    0.96490    0.01690    1.000
    H10      H        0.76720    0.70930    0.05530    1.000
    H11      H        0.06150    0.82100    0.29310    1.000
    H12      H        0.04090    0.03510    0.98310    1.000
    C1       C        0.52610    0.35050    0.28710    1.000
    C2       C        0.35030    0.27100    0.41800    1.000
    C3       C        0.52390    0.44530    0.46100    1.000
    C4       C        0.02610    0.64950    0.71290    1.000
    C5       C        0.85030    0.72900    0.58200    1.000
    C6       C        0.02390    0.55470    0.53900    1.000
    C7       C        0.52610    0.14950    0.78710    1.000
    C8       C        0.35030    0.22900    0.91800    1.000
    C9       C        0.52390    0.05470    0.96100    1.000
    C10      C        0.02610    0.85050    0.21290    1.000
    C11      C        0.85030    0.77100    0.08200    1.000
    C12      C        0.02390    0.94530    0.03900    1.000
    N1       N        0.40430    0.26320    0.31310    1.000
    N2       N        0.40690    0.13980    0.99480    1.000
    N3       N        0.09060    0.94550    0.14030    1.000
    N4       N        0.90430    0.73680    0.68690    1.000
    N5       N        0.90690    0.86020    0.00520    1.000
    N6       N        0.59060    0.05450    0.85970    1.000
    N7       N        0.40430    0.23680    0.81310    1.000
    N8       N        0.40690    0.36020    0.49480    1.000
    N9       N        0.09060    0.55450    0.64030    1.000
    N10      N        0.90430    0.76320    0.18690    1.000
    N11      N        0.90690    0.63980    0.50520    1.000
    N12      N        0.59060    0.44550    0.35970    1.000
