# CIF file generated by openbabel 3.1.0, see https://openbabel.org
data_I
_chemical_name_common 'image0'
_cell_length_a 23.482
_cell_length_b 16.7231
_cell_length_c 7.7066
_cell_angle_alpha 90
_cell_angle_beta 104.716
_cell_angle_gamma 90
_space_group_name_H-M_alt 'P 1'
_space_group_name_Hall 'P 1'
loop_
    _symmetry_equiv_pos_as_xyz
    x,y,z
loop_
    _atom_site_label
    _atom_site_type_symbol
    _atom_site_fract_x
    _atom_site_fract_y
    _atom_site_fract_z
    _atom_site_occupancy
    C1       C        0.70667    0.09600    0.24830    1.000
    C2       C        0.68595    0.16640    0.33170    1.000
    C3       C        0.69362    0.24140    0.26890    1.000
    H1       H        0.70950    0.24780    0.17090    1.000
    C4       C        0.67747    0.30730    0.35260    1.000
    C5       C        0.65269    0.29860    0.49660    1.000
    H2       H        0.64160    0.34340    0.55140    1.000
    C6       C        0.64460    0.22270    0.55850    1.000
    C7       C        0.66130    0.15640    0.47710    1.000
    H3       H        0.65630    0.10540    0.51890    1.000
    C8       C        0.68910    0.38900    0.29000    1.000
    C9       C        0.60590    0.14290    0.75450    1.000
    H4       H        0.64160    0.11140    0.79380    1.000
    H5       H        0.58000    0.11580    0.65360    1.000
    C10      C        0.57590    0.15070    0.90650    1.000
    C11      C        0.57026    0.08210    0.99960    1.000
    H6       H        0.58640    0.03450    0.97190    1.000
    C12      C        0.54109    0.08340    0.13260    1.000
    H7       H        0.53760    0.03630    0.19340    1.000
    C13      C        0.51683    0.15260    0.17820    1.000
    C14      C        0.52330    0.22250    0.08750    1.000
    H8       H        0.50800    0.27040    0.11720    1.000
    C15      C        0.55289    0.22060    0.95150    1.000
    H9       H        0.55700    0.26740    0.89080    1.000
    O1       O        0.72702    0.10744    0.11550    1.000
    O2       O        0.70329    0.02659    0.31400    1.000
    O3       O        0.70146    0.39430    0.14170    1.000
    O4       O        0.68556    0.44729    0.39110    1.000
    O5       O        0.62001    0.21970    0.70120    1.000
    Zn1      Zn       0.76425    0.03195    0.99118    1.000
    C16      C        0.20667    0.59600    0.24830    1.000
    C17      C        0.18595    0.66640    0.33170    1.000
    C18      C        0.19362    0.74140    0.26890    1.000
    H10      H        0.20950    0.74780    0.17090    1.000
    C19      C        0.17747    0.80730    0.35260    1.000
    C20      C        0.15269    0.79860    0.49660    1.000
    H11      H        0.14160    0.84340    0.55140    1.000
    C21      C        0.14460    0.72270    0.55850    1.000
    C22      C        0.16130    0.65640    0.47710    1.000
    H12      H        0.15630    0.60540    0.51890    1.000
    C23      C        0.18910    0.88900    0.29000    1.000
    C24      C        0.10590    0.64290    0.75450    1.000
    H13      H        0.14160    0.61140    0.79380    1.000
    H14      H        0.08000    0.61580    0.65360    1.000
    C25      C        0.07590    0.65070    0.90650    1.000
    C26      C        0.07026    0.58210    0.99960    1.000
    H15      H        0.08640    0.53450    0.97190    1.000
    C27      C        0.04109    0.58340    0.13260    1.000
    H16      H        0.03760    0.53630    0.19340    1.000
    C28      C        0.01683    0.65260    0.17820    1.000
    C29      C        0.02330    0.72250    0.08750    1.000
    H17      H        0.00800    0.77040    0.11720    1.000
    C30      C        0.05289    0.72060    0.95150    1.000
    H18      H        0.05700    0.76740    0.89080    1.000
    O6       O        0.22702    0.60744    0.11550    1.000
    O7       O        0.20329    0.52659    0.31400    1.000
    O8       O        0.20146    0.89430    0.14170    1.000
    O9       O        0.18556    0.94729    0.39110    1.000
    O10      O        0.12001    0.71970    0.70120    1.000
    Zn2      Zn       0.26425    0.53195    0.99118    1.000
    C31      C        0.29333    0.09600    0.25170    1.000
    C32      C        0.31405    0.16640    0.16830    1.000
    C33      C        0.30638    0.24140    0.23110    1.000
    H19      H        0.29050    0.24780    0.32910    1.000
    C34      C        0.32253    0.30730    0.14740    1.000
    C35      C        0.34731    0.29860    0.00340    1.000
    H20      H        0.35840    0.34340    0.94860    1.000
    C36      C        0.35540    0.22270    0.94150    1.000
    C37      C        0.33870    0.15640    0.02290    1.000
    H21      H        0.34370    0.10540    0.98110    1.000
    C38      C        0.31090    0.38900    0.21000    1.000
    C39      C        0.39410    0.14290    0.74550    1.000
    H22      H        0.35840    0.11140    0.70620    1.000
    H23      H        0.42000    0.11580    0.84640    1.000
    C40      C        0.42410    0.15070    0.59350    1.000
    C41      C        0.42974    0.08210    0.50040    1.000
    H24      H        0.41360    0.03450    0.52810    1.000
    C42      C        0.45891    0.08340    0.36740    1.000
    H25      H        0.46240    0.03630    0.30660    1.000
    C43      C        0.48317    0.15260    0.32180    1.000
    C44      C        0.47670    0.22250    0.41250    1.000
    H26      H        0.49200    0.27040    0.38280    1.000
    C45      C        0.44711    0.22060    0.54850    1.000
    H27      H        0.44300    0.26740    0.60920    1.000
    O11      O        0.27298    0.10744    0.38450    1.000
    O12      O        0.29671    0.02659    0.18600    1.000
    O13      O        0.29854    0.39430    0.35830    1.000
    O14      O        0.31444    0.44729    0.10890    1.000
    O15      O        0.37999    0.21970    0.79880    1.000
    Zn3      Zn       0.23575    0.03195    0.50882    1.000
    C46      C        0.79333    0.59600    0.25170    1.000
    C47      C        0.81405    0.66640    0.16830    1.000
    C48      C        0.80638    0.74140    0.23110    1.000
    H28      H        0.79050    0.74780    0.32910    1.000
    C49      C        0.82253    0.80730    0.14740    1.000
    C50      C        0.84731    0.79860    0.00340    1.000
    H29      H        0.85840    0.84340    0.94860    1.000
    C51      C        0.85540    0.72270    0.94150    1.000
    C52      C        0.83870    0.65640    0.02290    1.000
    H30      H        0.84370    0.60540    0.98110    1.000
    C53      C        0.81090    0.88900    0.21000    1.000
    C54      C        0.89410    0.64290    0.74550    1.000
    H31      H        0.85840    0.61140    0.70620    1.000
    H32      H        0.92000    0.61580    0.84640    1.000
    C55      C        0.92410    0.65070    0.59350    1.000
    C56      C        0.92974    0.58210    0.50040    1.000
    H33      H        0.91360    0.53450    0.52810    1.000
    C57      C        0.95891    0.58340    0.36740    1.000
    H34      H        0.96240    0.53630    0.30660    1.000
    C58      C        0.98317    0.65260    0.32180    1.000
    C59      C        0.97670    0.72250    0.41250    1.000
    H35      H        0.99200    0.77040    0.38280    1.000
    C60      C        0.94711    0.72060    0.54850    1.000
    H36      H        0.94300    0.76740    0.60920    1.000
    O16      O        0.77298    0.60744    0.38450    1.000
    O17      O        0.79671    0.52659    0.18600    1.000
    O18      O        0.79854    0.89430    0.35830    1.000
    O19      O        0.81444    0.94729    0.10890    1.000
    O20      O        0.87999    0.71970    0.79880    1.000
    Zn4      Zn       0.73575    0.53195    0.50882    1.000
    C61      C        0.29333    0.90400    0.75170    1.000
    C62      C        0.31405    0.83360    0.66830    1.000
    C63      C        0.30638    0.75860    0.73110    1.000
    H37      H        0.29050    0.75220    0.82910    1.000
    C64      C        0.32253    0.69270    0.64740    1.000
    C65      C        0.34731    0.70140    0.50340    1.000
    H38      H        0.35840    0.65660    0.44860    1.000
    C66      C        0.35540    0.77730    0.44150    1.000
    C67      C        0.33870    0.84360    0.52290    1.000
    H39      H        0.34370    0.89460    0.48110    1.000
    C68      C        0.31090    0.61100    0.71000    1.000
    C69      C        0.39410    0.85710    0.24550    1.000
    H40      H        0.35840    0.88860    0.20620    1.000
    H41      H        0.42000    0.88420    0.34640    1.000
    C70      C        0.42410    0.84930    0.09350    1.000
    C71      C        0.42974    0.91790    0.00040    1.000
    H42      H        0.41360    0.96550    0.02810    1.000
    C72      C        0.45891    0.91660    0.86740    1.000
    H43      H        0.46240    0.96370    0.80660    1.000
    C73      C        0.48317    0.84740    0.82180    1.000
    C74      C        0.47670    0.77750    0.91250    1.000
    H44      H        0.49200    0.72960    0.88280    1.000
    C75      C        0.44711    0.77940    0.04850    1.000
    H45      H        0.44300    0.73260    0.10920    1.000
    O21      O        0.27298    0.89256    0.88450    1.000
    O22      O        0.29671    0.97341    0.68600    1.000
    O23      O        0.29854    0.60570    0.85830    1.000
    O24      O        0.31444    0.55271    0.60890    1.000
    O25      O        0.37999    0.78030    0.29880    1.000
    Zn5      Zn       0.23575    0.96805    0.00882    1.000
    C76      C        0.79333    0.40400    0.75170    1.000
    C77      C        0.81405    0.33360    0.66830    1.000
    C78      C        0.80638    0.25860    0.73110    1.000
    H46      H        0.79050    0.25220    0.82910    1.000
    C79      C        0.82253    0.19270    0.64740    1.000
    C80      C        0.84731    0.20140    0.50340    1.000
    H47      H        0.85840    0.15660    0.44860    1.000
    C81      C        0.85540    0.27730    0.44150    1.000
    C82      C        0.83870    0.34360    0.52290    1.000
    H48      H        0.84370    0.39460    0.48110    1.000
    C83      C        0.81090    0.11100    0.71000    1.000
    C84      C        0.89410    0.35710    0.24550    1.000
    H49      H        0.85840    0.38860    0.20620    1.000
    H50      H        0.92000    0.38420    0.34640    1.000
    C85      C        0.92410    0.34930    0.09350    1.000
    C86      C        0.92974    0.41790    0.00040    1.000
    H51      H        0.91360    0.46550    0.02810    1.000
    C87      C        0.95891    0.41660    0.86740    1.000
    H52      H        0.96240    0.46370    0.80660    1.000
    C88      C        0.98317    0.34740    0.82180    1.000
    C89      C        0.97670    0.27750    0.91250    1.000
    H53      H        0.99200    0.22960    0.88280    1.000
    C90      C        0.94711    0.27940    0.04850    1.000
    H54      H        0.94300    0.23260    0.10920    1.000
    O26      O        0.77298    0.39256    0.88450    1.000
    O27      O        0.79671    0.47341    0.68600    1.000
    O28      O        0.79854    0.10570    0.85830    1.000
    O29      O        0.81444    0.05271    0.60890    1.000
    O30      O        0.87999    0.28030    0.29880    1.000
    Zn6      Zn       0.73575    0.46805    0.00882    1.000
    C91      C        0.70667    0.90400    0.74830    1.000
    C92      C        0.68595    0.83360    0.83170    1.000
    C93      C        0.69362    0.75860    0.76890    1.000
    H55      H        0.70950    0.75220    0.67090    1.000
    C94      C        0.67747    0.69270    0.85260    1.000
    C95      C        0.65269    0.70140    0.99660    1.000
    H56      H        0.64160    0.65660    0.05140    1.000
    C96      C        0.64460    0.77730    0.05850    1.000
    C97      C        0.66130    0.84360    0.97710    1.000
    H57      H        0.65630    0.89460    0.01890    1.000
    C98      C        0.68910    0.61100    0.79000    1.000
    C99      C        0.60590    0.85710    0.25450    1.000
    H58      H        0.64160    0.88860    0.29380    1.000
    H59      H        0.58000    0.88420    0.15360    1.000
    C100     C        0.57590    0.84930    0.40650    1.000
    C101     C        0.57026    0.91790    0.49960    1.000
    H60      H        0.58640    0.96550    0.47190    1.000
    C102     C        0.54109    0.91660    0.63260    1.000
    H61      H        0.53760    0.96370    0.69340    1.000
    C103     C        0.51683    0.84740    0.67820    1.000
    C104     C        0.52330    0.77750    0.58750    1.000
    H62      H        0.50800    0.72960    0.61720    1.000
    C105     C        0.55289    0.77940    0.45150    1.000
    H63      H        0.55700    0.73260    0.39080    1.000
    O31      O        0.72702    0.89256    0.61550    1.000
    O32      O        0.70329    0.97341    0.81400    1.000
    O33      O        0.70146    0.60570    0.64170    1.000
    O34      O        0.68556    0.55271    0.89110    1.000
    O35      O        0.62001    0.78030    0.20120    1.000
    Zn7      Zn       0.76425    0.96805    0.49118    1.000
    C106     C        0.20667    0.40400    0.74830    1.000
    C107     C        0.18595    0.33360    0.83170    1.000
    C108     C        0.19362    0.25860    0.76890    1.000
    H64      H        0.20950    0.25220    0.67090    1.000
    C109     C        0.17747    0.19270    0.85260    1.000
    C110     C        0.15269    0.20140    0.99660    1.000
    H65      H        0.14160    0.15660    0.05140    1.000
    C111     C        0.14460    0.27730    0.05850    1.000
    C112     C        0.16130    0.34360    0.97710    1.000
    H66      H        0.15630    0.39460    0.01890    1.000
    C113     C        0.18910    0.11100    0.79000    1.000
    C114     C        0.10590    0.35710    0.25450    1.000
    H67      H        0.14160    0.38860    0.29380    1.000
    H68      H        0.08000    0.38420    0.15360    1.000
    C115     C        0.07590    0.34930    0.40650    1.000
    C116     C        0.07026    0.41790    0.49960    1.000
    H69      H        0.08640    0.46550    0.47190    1.000
    C117     C        0.04109    0.41660    0.63260    1.000
    H70      H        0.03760    0.46370    0.69340    1.000
    C118     C        0.01683    0.34740    0.67820    1.000
    C119     C        0.02330    0.27750    0.58750    1.000
    H71      H        0.00800    0.22960    0.61720    1.000
    C120     C        0.05289    0.27940    0.45150    1.000
    H72      H        0.05700    0.23260    0.39080    1.000
    O36      O        0.22702    0.39256    0.61550    1.000
    O37      O        0.20329    0.47341    0.81400    1.000
    O38      O        0.20146    0.10570    0.64170    1.000
    O39      O        0.18556    0.05271    0.89110    1.000
    O40      O        0.12001    0.28030    0.20120    1.000
    Zn8      Zn       0.26425    0.46805    0.49118    1.000
