# CIF file generated by openbabel 3.1.0, see https://openbabel.org
data_I
_chemical_name_common 'image0'
_cell_length_a 21.781
_cell_length_b 21.781
_cell_length_c 16.101
_cell_angle_alpha 90
_cell_angle_beta 90
_cell_angle_gamma 90
_space_group_name_H-M_alt 'P 1'
_space_group_name_Hall 'P 1'
loop_
    _symmetry_equiv_pos_as_xyz
    x,y,z
loop_
    _atom_site_label
    _atom_site_type_symbol
    _atom_site_fract_x
    _atom_site_fract_y
    _atom_site_fract_z
    _atom_site_occupancy
    Er1      Er       0.88335    0.41620    0.12396    1.000
    O1       O        0.77700    0.42680    0.15270    1.000
    O2       O        0.74510    0.38910    0.27450    1.000
    O3       O        0.47570    0.41400    0.30260    1.000
    O4       O        0.55930    0.37380    0.36160    1.000
    N1       N        0.63150    0.41850    0.24780    1.000
    C1       C        0.67160    0.43670    0.19010    1.000
    C2       C        0.65390    0.47000    0.12200    1.000
    H1       H        0.68240    0.48120    0.08180    1.000
    C3       C        0.59250    0.48690    0.11410    1.000
    H2       H        0.57950    0.51080    0.06960    1.000
    C4       C        0.55150    0.46740    0.17370    1.000
    H3       H        0.51020    0.47780    0.16980    1.000
    C5       C        0.57240    0.43190    0.23960    1.000
    C6       C        0.73710    0.41620    0.20570    1.000
    C7       C        0.53220    0.40520    0.30580    1.000
    Er2      Er       0.38335    0.91620    0.62396    1.000
    O5       O        0.27700    0.92680    0.65270    1.000
    O6       O        0.24510    0.88910    0.77450    1.000
    O7       O        0.97570    0.91400    0.80260    1.000
    O8       O        0.05930    0.87380    0.86160    1.000
    N2       N        0.13150    0.91850    0.74780    1.000
    C8       C        0.17160    0.93670    0.69010    1.000
    C9       C        0.15390    0.97000    0.62200    1.000
    H4       H        0.18240    0.98120    0.58180    1.000
    C10      C        0.09250    0.98690    0.61410    1.000
    H5       H        0.07950    0.01080    0.56960    1.000
    C11      C        0.05150    0.96740    0.67370    1.000
    H6       H        0.01020    0.97780    0.66980    1.000
    C12      C        0.07240    0.93190    0.73960    1.000
    C13      C        0.23710    0.91620    0.70570    1.000
    C14      C        0.03220    0.90520    0.80580    1.000
    Er3      Er       0.61665    0.58380    0.62396    1.000
    O9       O        0.72300    0.57320    0.65270    1.000
    O10      O        0.75490    0.61090    0.77450    1.000
    O11      O        0.02430    0.58600    0.80260    1.000
    O12      O        0.94070    0.62620    0.86160    1.000
    N3       N        0.86850    0.58150    0.74780    1.000
    C15      C        0.82840    0.56330    0.69010    1.000
    C16      C        0.84610    0.53000    0.62200    1.000
    H7       H        0.81760    0.51880    0.58180    1.000
    C17      C        0.90750    0.51310    0.61410    1.000
    H8       H        0.92050    0.48920    0.56960    1.000
    C18      C        0.94850    0.53260    0.67370    1.000
    H9       H        0.98980    0.52220    0.66980    1.000
    C19      C        0.92760    0.56810    0.73960    1.000
    C20      C        0.76290    0.58380    0.70570    1.000
    C21      C        0.96780    0.59480    0.80580    1.000
    Er4      Er       0.11665    0.08380    0.12396    1.000
    O13      O        0.22300    0.07320    0.15270    1.000
    O14      O        0.25490    0.11090    0.27450    1.000
    O15      O        0.52430    0.08600    0.30260    1.000
    O16      O        0.44070    0.12620    0.36160    1.000
    N4       N        0.36850    0.08150    0.24780    1.000
    C22      C        0.32840    0.06330    0.19010    1.000
    C23      C        0.34610    0.03000    0.12200    1.000
    H10      H        0.31760    0.01880    0.08180    1.000
    C24      C        0.40750    0.01310    0.11410    1.000
    H11      H        0.42050    0.98920    0.06960    1.000
    C25      C        0.44850    0.03260    0.17370    1.000
    H12      H        0.48980    0.02220    0.16980    1.000
    C26      C        0.42760    0.06810    0.23960    1.000
    C27      C        0.26290    0.08380    0.20570    1.000
    C28      C        0.46780    0.09480    0.30580    1.000
    Er5      Er       0.33380    0.13335    0.37396    1.000
    O17      O        0.32320    0.02700    0.40270    1.000
    O18      O        0.36090    0.99510    0.52450    1.000
    O19      O        0.33600    0.72570    0.55260    1.000
    O20      O        0.37620    0.80930    0.61160    1.000
    N5       N        0.33150    0.88150    0.49780    1.000
    C29      C        0.31330    0.92160    0.44010    1.000
    C30      C        0.28000    0.90390    0.37200    1.000
    H13      H        0.26880    0.93240    0.33180    1.000
    C31      C        0.26310    0.84250    0.36410    1.000
    H14      H        0.23920    0.82950    0.31960    1.000
    C32      C        0.28260    0.80150    0.42370    1.000
    H15      H        0.27220    0.76020    0.41980    1.000
    C33      C        0.31810    0.82240    0.48960    1.000
    C34      C        0.33380    0.98710    0.45570    1.000
    C35      C        0.34480    0.78220    0.55580    1.000
    Er6      Er       0.83380    0.63335    0.87396    1.000
    O21      O        0.82320    0.52700    0.90270    1.000
    O22      O        0.86090    0.49510    0.02450    1.000
    O23      O        0.83600    0.22570    0.05260    1.000
    O24      O        0.87620    0.30930    0.11160    1.000
    N6       N        0.83150    0.38150    0.99780    1.000
    C36      C        0.81330    0.42160    0.94010    1.000
    C37      C        0.78000    0.40390    0.87200    1.000
    H16      H        0.76880    0.43240    0.83180    1.000
    C38      C        0.76310    0.34250    0.86410    1.000
    H17      H        0.73920    0.32950    0.81960    1.000
    C39      C        0.78260    0.30150    0.92370    1.000
    H18      H        0.77220    0.26020    0.91980    1.000
    C40      C        0.81810    0.32240    0.98960    1.000
    C41      C        0.83380    0.48710    0.95570    1.000
    C42      C        0.84480    0.28220    0.05580    1.000
    Er7      Er       0.16620    0.86665    0.87396    1.000
    O25      O        0.17680    0.97300    0.90270    1.000
    O26      O        0.13910    0.00490    0.02450    1.000
    O27      O        0.16400    0.27430    0.05260    1.000
    O28      O        0.12380    0.19070    0.11160    1.000
    N7       N        0.16850    0.11850    0.99780    1.000
    C43      C        0.18670    0.07840    0.94010    1.000
    C44      C        0.22000    0.09610    0.87200    1.000
    H19      H        0.23120    0.06760    0.83180    1.000
    C45      C        0.23690    0.15750    0.86410    1.000
    H20      H        0.26080    0.17050    0.81960    1.000
    C46      C        0.21740    0.19850    0.92370    1.000
    H21      H        0.22780    0.23980    0.91980    1.000
    C47      C        0.18190    0.17760    0.98960    1.000
    C48      C        0.16620    0.01290    0.95570    1.000
    C49      C        0.15520    0.21780    0.05580    1.000
    Er8      Er       0.66620    0.36665    0.37396    1.000
    O29      O        0.67680    0.47300    0.40270    1.000
    O30      O        0.63910    0.50490    0.52450    1.000
    O31      O        0.66400    0.77430    0.55260    1.000
    O32      O        0.62380    0.69070    0.61160    1.000
    N8       N        0.66850    0.61850    0.49780    1.000
    C50      C        0.68670    0.57840    0.44010    1.000
    C51      C        0.72000    0.59610    0.37200    1.000
    H22      H        0.73120    0.56760    0.33180    1.000
    C52      C        0.73690    0.65750    0.36410    1.000
    H23      H        0.76080    0.67050    0.31960    1.000
    C53      C        0.71740    0.69850    0.42370    1.000
    H24      H        0.72780    0.73980    0.41980    1.000
    C54      C        0.68190    0.67760    0.48960    1.000
    C55      C        0.66620    0.51290    0.45570    1.000
    C56      C        0.65520    0.71780    0.55580    1.000
    Er9      Er       0.11665    0.58380    0.87604    1.000
    O33      O        0.22300    0.57320    0.84730    1.000
    O34      O        0.25490    0.61090    0.72550    1.000
    O35      O        0.52430    0.58600    0.69740    1.000
    O36      O        0.44070    0.62620    0.63840    1.000
    N9       N        0.36850    0.58150    0.75220    1.000
    C57      C        0.32840    0.56330    0.80990    1.000
    C58      C        0.34610    0.53000    0.87800    1.000
    H25      H        0.31760    0.51880    0.91820    1.000
    C59      C        0.40750    0.51310    0.88590    1.000
    H26      H        0.42050    0.48920    0.93040    1.000
    C60      C        0.44850    0.53260    0.82630    1.000
    H27      H        0.48980    0.52220    0.83020    1.000
    C61      C        0.42760    0.56810    0.76040    1.000
    C62      C        0.26290    0.58380    0.79430    1.000
    C63      C        0.46780    0.59480    0.69420    1.000
    Er10     Er       0.61665    0.08380    0.37604    1.000
    O37      O        0.72300    0.07320    0.34730    1.000
    O38      O        0.75490    0.11090    0.22550    1.000
    O39      O        0.02430    0.08600    0.19740    1.000
    O40      O        0.94070    0.12620    0.13840    1.000
    N10      N        0.86850    0.08150    0.25220    1.000
    C64      C        0.82840    0.06330    0.30990    1.000
    C65      C        0.84610    0.03000    0.37800    1.000
    H28      H        0.81760    0.01880    0.41820    1.000
    C66      C        0.90750    0.01310    0.38590    1.000
    H29      H        0.92050    0.98920    0.43040    1.000
    C67      C        0.94850    0.03260    0.32630    1.000
    H30      H        0.98980    0.02220    0.33020    1.000
    C68      C        0.92760    0.06810    0.26040    1.000
    C69      C        0.76290    0.08380    0.29430    1.000
    C70      C        0.96780    0.09480    0.19420    1.000
    Er11     Er       0.38335    0.41620    0.37604    1.000
    O41      O        0.27700    0.42680    0.34730    1.000
    O42      O        0.24510    0.38910    0.22550    1.000
    O43      O        0.97570    0.41400    0.19740    1.000
    O44      O        0.05930    0.37380    0.13840    1.000
    N11      N        0.13150    0.41850    0.25220    1.000
    C71      C        0.17160    0.43670    0.30990    1.000
    C72      C        0.15390    0.47000    0.37800    1.000
    H31      H        0.18240    0.48120    0.41820    1.000
    C73      C        0.09250    0.48690    0.38590    1.000
    H32      H        0.07950    0.51080    0.43040    1.000
    C74      C        0.05150    0.46740    0.32630    1.000
    H33      H        0.01020    0.47780    0.33020    1.000
    C75      C        0.07240    0.43190    0.26040    1.000
    C76      C        0.23710    0.41620    0.29430    1.000
    C77      C        0.03220    0.40520    0.19420    1.000
    Er12     Er       0.88335    0.91620    0.87604    1.000
    O45      O        0.77700    0.92680    0.84730    1.000
    O46      O        0.74510    0.88910    0.72550    1.000
    O47      O        0.47570    0.91400    0.69740    1.000
    O48      O        0.55930    0.87380    0.63840    1.000
    N12      N        0.63150    0.91850    0.75220    1.000
    C78      C        0.67160    0.93670    0.80990    1.000
    C79      C        0.65390    0.97000    0.87800    1.000
    H34      H        0.68240    0.98120    0.91820    1.000
    C80      C        0.59250    0.98690    0.88590    1.000
    H35      H        0.57950    0.01080    0.93040    1.000
    C81      C        0.55150    0.96740    0.82630    1.000
    H36      H        0.51020    0.97780    0.83020    1.000
    C82      C        0.57240    0.93190    0.76040    1.000
    C83      C        0.73710    0.91620    0.79430    1.000
    C84      C        0.53220    0.90520    0.69420    1.000
    Er13     Er       0.66620    0.86665    0.62604    1.000
    O49      O        0.67680    0.97300    0.59730    1.000
    O50      O        0.63910    0.00490    0.47550    1.000
    O51      O        0.66400    0.27430    0.44740    1.000
    O52      O        0.62380    0.19070    0.38840    1.000
    N13      N        0.66850    0.11850    0.50220    1.000
    C85      C        0.68670    0.07840    0.55990    1.000
    C86      C        0.72000    0.09610    0.62800    1.000
    H37      H        0.73120    0.06760    0.66820    1.000
    C87      C        0.73690    0.15750    0.63590    1.000
    H38      H        0.76080    0.17050    0.68040    1.000
    C88      C        0.71740    0.19850    0.57630    1.000
    H39      H        0.72780    0.23980    0.58020    1.000
    C89      C        0.68190    0.17760    0.51040    1.000
    C90      C        0.66620    0.01290    0.54430    1.000
    C91      C        0.65520    0.21780    0.44420    1.000
    Er14     Er       0.16620    0.36665    0.12604    1.000
    O53      O        0.17680    0.47300    0.09730    1.000
    O54      O        0.13910    0.50490    0.97550    1.000
    O55      O        0.16400    0.77430    0.94740    1.000
    O56      O        0.12380    0.69070    0.88840    1.000
    N14      N        0.16850    0.61850    0.00220    1.000
    C92      C        0.18670    0.57840    0.05990    1.000
    C93      C        0.22000    0.59610    0.12800    1.000
    H40      H        0.23120    0.56760    0.16820    1.000
    C94      C        0.23690    0.65750    0.13590    1.000
    H41      H        0.26080    0.67050    0.18040    1.000
    C95      C        0.21740    0.69850    0.07630    1.000
    H42      H        0.22780    0.73980    0.08020    1.000
    C96      C        0.18190    0.67760    0.01040    1.000
    C97      C        0.16620    0.51290    0.04430    1.000
    C98      C        0.15520    0.71780    0.94420    1.000
    Er15     Er       0.83380    0.13335    0.12604    1.000
    O57      O        0.82320    0.02700    0.09730    1.000
    O58      O        0.86090    0.99510    0.97550    1.000
    O59      O        0.83600    0.72570    0.94740    1.000
    O60      O        0.87620    0.80930    0.88840    1.000
    N15      N        0.83150    0.88150    0.00220    1.000
    C99      C        0.81330    0.92160    0.05990    1.000
    C100     C        0.78000    0.90390    0.12800    1.000
    H43      H        0.76880    0.93240    0.16820    1.000
    C101     C        0.76310    0.84250    0.13590    1.000
    H44      H        0.73920    0.82950    0.18040    1.000
    C102     C        0.78260    0.80150    0.07630    1.000
    H45      H        0.77220    0.76020    0.08020    1.000
    C103     C        0.81810    0.82240    0.01040    1.000
    C104     C        0.83380    0.98710    0.04430    1.000
    C105     C        0.84480    0.78220    0.94420    1.000
    Er16     Er       0.33380    0.63335    0.62604    1.000
    O61      O        0.32320    0.52700    0.59730    1.000
    O62      O        0.36090    0.49510    0.47550    1.000
    O63      O        0.33600    0.22570    0.44740    1.000
    O64      O        0.37620    0.30930    0.38840    1.000
    N16      N        0.33150    0.38150    0.50220    1.000
    C106     C        0.31330    0.42160    0.55990    1.000
    C107     C        0.28000    0.40390    0.62800    1.000
    H46      H        0.26880    0.43240    0.66820    1.000
    C108     C        0.26310    0.34250    0.63590    1.000
    H47      H        0.23920    0.32950    0.68040    1.000
    C109     C        0.28260    0.30150    0.57630    1.000
    H48      H        0.27220    0.26020    0.58020    1.000
    C110     C        0.31810    0.32240    0.51040    1.000
    C111     C        0.33380    0.48710    0.54430    1.000
    C112     C        0.34480    0.28220    0.44420    1.000
