# CIF file generated by openbabel 3.1.0, see https://openbabel.org
data_I
_chemical_name_common 'image0'
_cell_length_a 8.6276
_cell_length_b 9.4066
_cell_length_c 13.0569
_cell_angle_alpha 90
_cell_angle_beta 105.504
_cell_angle_gamma 90
_space_group_name_H-M_alt 'P 1'
_space_group_name_Hall 'P 1'
loop_
    _symmetry_equiv_pos_as_xyz
    x,y,z
loop_
    _atom_site_label
    _atom_site_type_symbol
    _atom_site_fract_x
    _atom_site_fract_y
    _atom_site_fract_z
    _atom_site_occupancy
    N1       N        0.06260    0.94450    0.18170    1.000
    N2       N        0.22760    0.87170    0.99310    1.000
    N3       N        0.83880    0.79850    0.95730    1.000
    N4       N        0.56260    0.44450    0.18170    1.000
    N5       N        0.72760    0.37170    0.99310    1.000
    N6       N        0.33880    0.29850    0.95730    1.000
    N7       N        0.93740    0.94450    0.31830    1.000
    N8       N        0.77240    0.87170    0.50690    1.000
    N9       N        0.16120    0.79850    0.54270    1.000
    N10      N        0.43740    0.44450    0.31830    1.000
    N11      N        0.27240    0.37170    0.50690    1.000
    N12      N        0.66120    0.29850    0.54270    1.000
    N13      N        0.93740    0.05550    0.81830    1.000
    N14      N        0.77240    0.12830    0.00690    1.000
    N15      N        0.16120    0.20150    0.04270    1.000
    N16      N        0.43740    0.55550    0.81830    1.000
    N17      N        0.27240    0.62830    0.00690    1.000
    N18      N        0.66120    0.70150    0.04270    1.000
    N19      N        0.06260    0.05550    0.68170    1.000
    N20      N        0.22760    0.12830    0.49310    1.000
    N21      N        0.83880    0.20150    0.45730    1.000
    N22      N        0.56260    0.55550    0.68170    1.000
    N23      N        0.72760    0.62830    0.49310    1.000
    N24      N        0.33880    0.70150    0.45730    1.000
    Cd1      Cd       0.00000    0.00000    0.00000    1.000
    Cd2      Cd       0.50000    0.50000    0.00000    1.000
    Cd3      Cd       0.00000    0.00000    0.50000    1.000
    Cd4      Cd       0.50000    0.50000    0.50000    1.000
    N25      N        0.00000    0.94720    0.25000    1.000
    N26      N        0.50000    0.44720    0.25000    1.000
    N27      N        0.00000    0.05280    0.75000    1.000
    N28      N        0.50000    0.55280    0.75000    1.000
    N29      N        0.25000    0.75000    0.00000    1.000
    N30      N        0.75000    0.75000    0.50000    1.000
    N31      N        0.75000    0.25000    0.00000    1.000
    N32      N        0.25000    0.25000    0.50000    1.000
    N33      N        0.75000    0.75000    0.00000    1.000
    N34      N        0.25000    0.75000    0.50000    1.000
    N35      N        0.25000    0.25000    0.00000    1.000
    N36      N        0.75000    0.25000    0.50000    1.000
