# CIF file generated by openbabel 3.1.0, see https://openbabel.org
data_I
_chemical_name_common 'image0'
_cell_length_a 8.261
_cell_length_b 11.6414
_cell_length_c 8.8332
_cell_angle_alpha 90
_cell_angle_beta 90
_cell_angle_gamma 90
_space_group_name_H-M_alt 'P 1'
_space_group_name_Hall 'P 1'
loop_
    _symmetry_equiv_pos_as_xyz
    x,y,z
loop_
    _atom_site_label
    _atom_site_type_symbol
    _atom_site_fract_x
    _atom_site_fract_y
    _atom_site_fract_z
    _atom_site_occupancy
    O1       O        0.25570    0.40500    0.36248    1.000
    O2       O        0.40781    0.18375    0.41197    1.000
    O3       O        0.56754    0.19269    0.61169    1.000
    C1       C        0.52480    0.22462    0.48300    1.000
    H1       H        0.58420    0.28280    0.43690    1.000
    O4       O        0.24430    0.59500    0.36248    1.000
    O5       O        0.09219    0.81625    0.41197    1.000
    O6       O        0.93246    0.80731    0.61169    1.000
    C2       C        0.97520    0.77538    0.48300    1.000
    H2       H        0.91580    0.71720    0.43690    1.000
    O7       O        0.24430    0.90500    0.13752    1.000
    O8       O        0.09219    0.68375    0.08803    1.000
    O9       O        0.93246    0.69269    0.88831    1.000
    C3       C        0.97520    0.72462    0.01700    1.000
    H3       H        0.91580    0.78280    0.06310    1.000
    O10      O        0.25570    0.09500    0.13752    1.000
    O11      O        0.40781    0.31625    0.08803    1.000
    O12      O        0.56754    0.30731    0.88831    1.000
    C4       C        0.52480    0.27538    0.01700    1.000
    H4       H        0.58420    0.21720    0.06310    1.000
    O13      O        0.74430    0.59500    0.63752    1.000
    O14      O        0.59219    0.81625    0.58803    1.000
    O15      O        0.43246    0.80731    0.38831    1.000
    C5       C        0.47520    0.77538    0.51700    1.000
    H5       H        0.41580    0.71720    0.56310    1.000
    O16      O        0.75570    0.40500    0.63752    1.000
    O17      O        0.90781    0.18375    0.58803    1.000
    O18      O        0.06754    0.19269    0.38831    1.000
    C6       C        0.02480    0.22462    0.51700    1.000
    H6       H        0.08420    0.28280    0.56310    1.000
    O19      O        0.75570    0.09500    0.86248    1.000
    O20      O        0.90781    0.31625    0.91197    1.000
    O21      O        0.06754    0.30731    0.11169    1.000
    C7       C        0.02480    0.27538    0.98300    1.000
    H7       H        0.08420    0.21720    0.93690    1.000
    O22      O        0.74430    0.90500    0.86248    1.000
    O23      O        0.59219    0.68375    0.91197    1.000
    O24      O        0.43246    0.69269    0.11169    1.000
    C8       C        0.47520    0.72462    0.98300    1.000
    H8       H        0.41580    0.78280    0.93690    1.000
    Ni1      Ni       0.25405    0.25000    0.25000    1.000
    Ni2      Ni       0.24595    0.75000    0.25000    1.000
    Ni3      Ni       0.74595    0.75000    0.75000    1.000
    Ni4      Ni       0.75405    0.25000    0.75000    1.000
    C9       C        0.25000    0.50000    0.29930    1.000
    H9       H        0.25000    0.50000    0.19400    1.000
    C10      C        0.25000    0.00000    0.20070    1.000
    H10      H        0.25000    0.00000    0.30600    1.000
    C11      C        0.75000    0.50000    0.70070    1.000
    H11      H        0.75000    0.50000    0.80600    1.000
    C12      C        0.75000    0.00000    0.79930    1.000
    H12      H        0.75000    0.00000    0.69400    1.000
