# CIF file generated by openbabel 3.1.0, see https://openbabel.org
data_I
_chemical_name_common 'image0'
_cell_length_a 16.662
_cell_length_b 14.861
_cell_length_c 17.9777
_cell_angle_alpha 90
_cell_angle_beta 113.117
_cell_angle_gamma 90
_space_group_name_H-M_alt 'P 1'
_space_group_name_Hall 'P 1'
loop_
    _symmetry_equiv_pos_as_xyz
    x,y,z
loop_
    _atom_site_label
    _atom_site_type_symbol
    _atom_site_fract_x
    _atom_site_fract_y
    _atom_site_fract_z
    _atom_site_occupancy
    C1       C        0.28250    0.96640    0.41061    1.000
    H1       H        0.27250    0.02780    0.40110    1.000
    C2       C        0.27360    0.82370    0.39731    1.000
    H2       H        0.25520    0.76670    0.37620    1.000
    C3       C        0.34050    0.84010    0.46762    1.000
    H3       H        0.37640    0.79790    0.50350    1.000
    C4       C        0.40950    0.98140    0.54304    1.000
    H4       H        0.41460    0.95430    0.59380    1.000
    H5       H        0.38920    0.04270    0.54210    1.000
    C5       C        0.49870    0.98290    0.53876    1.000
    H6       H        0.53710    0.02000    0.58270    1.000
    H7       H        0.52200    0.92230    0.54780    1.000
    C6       C        0.12240    0.02830    0.09532    1.000
    H8       H        0.13120    0.08230    0.12350    1.000
    C7       C        0.10300    0.88860    0.06480    1.000
    H9       H        0.09530    0.82700    0.06840    1.000
    C8       C        0.10340    0.93240    0.99900    1.000
    H10      H        0.09710    0.90650    0.94990    1.000
    C9       C        0.12520    0.09620    0.96900    1.000
    H11      H        0.12180    0.15260    0.99480    1.000
    H12      H        0.07790    0.09500    0.91600    1.000
    C10      C        0.21030    0.09160    0.95960    1.000
    H13      H        0.21450    0.14260    0.92770    1.000
    H14      H        0.21140    0.03740    0.93010    1.000
    C11      C        0.92360    0.95530    0.24426    1.000
    H15      H        0.92120    0.89280    0.24240    1.000
    C12      C        0.84990    0.00280    0.23683    1.000
    H16      H        0.79860    0.97310    0.23110    1.000
    C13      C        0.85390    0.09560    0.23810    1.000
    H17      H        0.80480    0.12910    0.23310    1.000
    C14      C        0.93050    0.13920    0.24671    1.000
    C15      C        0.00470    0.08790    0.25790    1.000
    C16      C        0.09510    0.12650    0.27980    1.000
    C17      C        0.93060    0.24090    0.24284    1.000
    Cd1      Cd       0.11805    0.92415    0.24950    1.000
    N1       N        0.11564    0.94972    0.12545    1.000
    N2       N        0.23631    0.90166    0.36119    1.000
    N3       N        0.99886    0.99652    0.25410    1.000
    N4       N        0.11475    0.02058    0.01782    1.000
    N5       N        0.34510    0.93092    0.47563    1.000
    O1       O        0.91354    0.28140    0.29541    1.000
    O2       O        0.93902    0.27982    0.18631    1.000
    O3       O        0.15231    0.07845    0.27351    1.000
    O4       O        0.10523    0.20463    0.30458    1.000
    C18      C        0.78250    0.46640    0.91061    1.000
    H18      H        0.77250    0.52780    0.90110    1.000
    C19      C        0.77360    0.32370    0.89731    1.000
    H19      H        0.75520    0.26670    0.87620    1.000
    C20      C        0.84050    0.34010    0.96762    1.000
    H20      H        0.87640    0.29790    0.00350    1.000
    C21      C        0.90950    0.48140    0.04304    1.000
    H21      H        0.91460    0.45430    0.09380    1.000
    H22      H        0.88920    0.54270    0.04210    1.000
    C22      C        0.99870    0.48290    0.03876    1.000
    H23      H        0.03710    0.52000    0.08270    1.000
    H24      H        0.02200    0.42230    0.04780    1.000
    C23      C        0.62240    0.52830    0.59532    1.000
    H25      H        0.63120    0.58230    0.62350    1.000
    C24      C        0.60300    0.38860    0.56480    1.000
    H26      H        0.59530    0.32700    0.56840    1.000
    C25      C        0.60340    0.43240    0.49900    1.000
    H27      H        0.59710    0.40650    0.44990    1.000
    C26      C        0.62520    0.59620    0.46900    1.000
    H28      H        0.62180    0.65260    0.49480    1.000
    H29      H        0.57790    0.59500    0.41600    1.000
    C27      C        0.71030    0.59160    0.45960    1.000
    H30      H        0.71450    0.64260    0.42770    1.000
    H31      H        0.71140    0.53740    0.43010    1.000
    C28      C        0.42360    0.45530    0.74426    1.000
    H32      H        0.42120    0.39280    0.74240    1.000
    C29      C        0.34990    0.50280    0.73683    1.000
    H33      H        0.29860    0.47310    0.73110    1.000
    C30      C        0.35390    0.59560    0.73810    1.000
    H34      H        0.30480    0.62910    0.73310    1.000
    C31      C        0.43050    0.63920    0.74671    1.000
    C32      C        0.50470    0.58790    0.75790    1.000
    C33      C        0.59510    0.62650    0.77980    1.000
    C34      C        0.43060    0.74090    0.74284    1.000
    Cd2      Cd       0.61805    0.42415    0.74950    1.000
    N6       N        0.61564    0.44972    0.62545    1.000
    N7       N        0.73631    0.40166    0.86119    1.000
    N8       N        0.49886    0.49652    0.75410    1.000
    N9       N        0.61475    0.52058    0.51782    1.000
    N10      N        0.84510    0.43092    0.97563    1.000
    O5       O        0.41354    0.78140    0.79541    1.000
    O6       O        0.43902    0.77982    0.68631    1.000
    O7       O        0.65231    0.57845    0.77351    1.000
    O8       O        0.60523    0.70463    0.80458    1.000
    C35      C        0.21750    0.96640    0.58939    1.000
    H35      H        0.22750    0.02780    0.59890    1.000
    C36      C        0.22640    0.82370    0.60269    1.000
    H36      H        0.24480    0.76670    0.62380    1.000
    C37      C        0.15950    0.84010    0.53238    1.000
    H37      H        0.12360    0.79790    0.49650    1.000
    C38      C        0.09050    0.98140    0.45696    1.000
    H38      H        0.08540    0.95430    0.40620    1.000
    H39      H        0.11080    0.04270    0.45790    1.000
    C39      C        0.00130    0.98290    0.46124    1.000
    H40      H        0.96290    0.02000    0.41730    1.000
    H41      H        0.97800    0.92230    0.45220    1.000
    C40      C        0.37760    0.02830    0.90468    1.000
    H42      H        0.36880    0.08230    0.87650    1.000
    C41      C        0.39700    0.88860    0.93520    1.000
    H43      H        0.40470    0.82700    0.93160    1.000
    C42      C        0.39660    0.93240    0.00100    1.000
    H44      H        0.40290    0.90650    0.05010    1.000
    C43      C        0.37480    0.09620    0.03100    1.000
    H45      H        0.37820    0.15260    0.00520    1.000
    H46      H        0.42210    0.09500    0.08400    1.000
    C44      C        0.28970    0.09160    0.04040    1.000
    H47      H        0.28550    0.14260    0.07230    1.000
    H48      H        0.28860    0.03740    0.06990    1.000
    C45      C        0.57640    0.95530    0.75574    1.000
    H49      H        0.57880    0.89280    0.75760    1.000
    C46      C        0.65010    0.00280    0.76317    1.000
    H50      H        0.70140    0.97310    0.76890    1.000
    C47      C        0.64610    0.09560    0.76190    1.000
    H51      H        0.69520    0.12910    0.76690    1.000
    C48      C        0.56950    0.13920    0.75329    1.000
    C49      C        0.49530    0.08790    0.74210    1.000
    C50      C        0.40490    0.12650    0.72020    1.000
    C51      C        0.56940    0.24090    0.75716    1.000
    Cd3      Cd       0.38195    0.92415    0.75050    1.000
    N11      N        0.38436    0.94972    0.87455    1.000
    N12      N        0.26369    0.90166    0.63881    1.000
    N13      N        0.50114    0.99652    0.74590    1.000
    N14      N        0.38525    0.02058    0.98218    1.000
    N15      N        0.15490    0.93092    0.52437    1.000
    O9       O        0.58646    0.28140    0.70459    1.000
    O10      O        0.56098    0.27982    0.81369    1.000
    O11      O        0.34769    0.07845    0.72649    1.000
    O12      O        0.39477    0.20463    0.69542    1.000
    C52      C        0.71750    0.46640    0.08939    1.000
    H52      H        0.72750    0.52780    0.09890    1.000
    C53      C        0.72640    0.32370    0.10269    1.000
    H53      H        0.74480    0.26670    0.12380    1.000
    C54      C        0.65950    0.34010    0.03238    1.000
    H54      H        0.62360    0.29790    0.99650    1.000
    C55      C        0.59050    0.48140    0.95696    1.000
    H55      H        0.58540    0.45430    0.90620    1.000
    H56      H        0.61080    0.54270    0.95790    1.000
    C56      C        0.50130    0.48290    0.96124    1.000
    H57      H        0.46290    0.52000    0.91730    1.000
    H58      H        0.47800    0.42230    0.95220    1.000
    C57      C        0.87760    0.52830    0.40468    1.000
    H59      H        0.86880    0.58230    0.37650    1.000
    C58      C        0.89700    0.38860    0.43520    1.000
    H60      H        0.90470    0.32700    0.43160    1.000
    C59      C        0.89660    0.43240    0.50100    1.000
    H61      H        0.90290    0.40650    0.55010    1.000
    C60      C        0.87480    0.59620    0.53100    1.000
    H62      H        0.87820    0.65260    0.50520    1.000
    H63      H        0.92210    0.59500    0.58400    1.000
    C61      C        0.78970    0.59160    0.54040    1.000
    H64      H        0.78550    0.64260    0.57230    1.000
    H65      H        0.78860    0.53740    0.56990    1.000
    C62      C        0.07640    0.45530    0.25574    1.000
    H66      H        0.07880    0.39280    0.25760    1.000
    C63      C        0.15010    0.50280    0.26317    1.000
    H67      H        0.20140    0.47310    0.26890    1.000
    C64      C        0.14610    0.59560    0.26190    1.000
    H68      H        0.19520    0.62910    0.26690    1.000
    C65      C        0.06950    0.63920    0.25329    1.000
    C66      C        0.99530    0.58790    0.24210    1.000
    C67      C        0.90490    0.62650    0.22020    1.000
    C68      C        0.06940    0.74090    0.25716    1.000
    Cd4      Cd       0.88195    0.42415    0.25050    1.000
    N16      N        0.88436    0.44972    0.37455    1.000
    N17      N        0.76369    0.40166    0.13881    1.000
    N18      N        0.00114    0.49652    0.24590    1.000
    N19      N        0.88525    0.52058    0.48218    1.000
    N20      N        0.65490    0.43092    0.02437    1.000
    O13      O        0.08646    0.78140    0.20459    1.000
    O14      O        0.06098    0.77982    0.31369    1.000
    O15      O        0.84769    0.57845    0.22649    1.000
    O16      O        0.89477    0.70463    0.19542    1.000
    C69      C        0.71750    0.03360    0.58939    1.000
    H69      H        0.72750    0.97220    0.59890    1.000
    C70      C        0.72640    0.17630    0.60269    1.000
    H70      H        0.74480    0.23330    0.62380    1.000
    C71      C        0.65950    0.15990    0.53238    1.000
    H71      H        0.62360    0.20210    0.49650    1.000
    C72      C        0.59050    0.01860    0.45696    1.000
    H72      H        0.58540    0.04570    0.40620    1.000
    H73      H        0.61080    0.95730    0.45790    1.000
    C73      C        0.50130    0.01710    0.46124    1.000
    H74      H        0.46290    0.98000    0.41730    1.000
    H75      H        0.47800    0.07770    0.45220    1.000
    C74      C        0.87760    0.97170    0.90468    1.000
    H76      H        0.86880    0.91770    0.87650    1.000
    C75      C        0.89700    0.11140    0.93520    1.000
    H77      H        0.90470    0.17300    0.93160    1.000
    C76      C        0.89660    0.06760    0.00100    1.000
    H78      H        0.90290    0.09350    0.05010    1.000
    C77      C        0.87480    0.90380    0.03100    1.000
    H79      H        0.87820    0.84740    0.00520    1.000
    H80      H        0.92210    0.90500    0.08400    1.000
    C78      C        0.78970    0.90840    0.04040    1.000
    H81      H        0.78550    0.85740    0.07230    1.000
    H82      H        0.78860    0.96260    0.06990    1.000
    C79      C        0.07640    0.04470    0.75574    1.000
    H83      H        0.07880    0.10720    0.75760    1.000
    C80      C        0.15010    0.99720    0.76317    1.000
    H84      H        0.20140    0.02690    0.76890    1.000
    C81      C        0.14610    0.90440    0.76190    1.000
    H85      H        0.19520    0.87090    0.76690    1.000
    C82      C        0.06950    0.86080    0.75329    1.000
    C83      C        0.99530    0.91210    0.74210    1.000
    C84      C        0.90490    0.87350    0.72020    1.000
    C85      C        0.06940    0.75910    0.75716    1.000
    Cd5      Cd       0.88195    0.07585    0.75050    1.000
    N21      N        0.88436    0.05028    0.87455    1.000
    N22      N        0.76369    0.09834    0.63881    1.000
    N23      N        0.00114    0.00348    0.74590    1.000
    N24      N        0.88525    0.97942    0.98218    1.000
    N25      N        0.65490    0.06908    0.52437    1.000
    O17      O        0.08646    0.71860    0.70459    1.000
    O18      O        0.06098    0.72018    0.81369    1.000
    O19      O        0.84769    0.92155    0.72649    1.000
    O20      O        0.89477    0.79537    0.69542    1.000
    C86      C        0.21750    0.53360    0.08939    1.000
    H86      H        0.22750    0.47220    0.09890    1.000
    C87      C        0.22640    0.67630    0.10269    1.000
    H87      H        0.24480    0.73330    0.12380    1.000
    C88      C        0.15950    0.65990    0.03238    1.000
    H88      H        0.12360    0.70210    0.99650    1.000
    C89      C        0.09050    0.51860    0.95696    1.000
    H89      H        0.08540    0.54570    0.90620    1.000
    H90      H        0.11080    0.45730    0.95790    1.000
    C90      C        0.00130    0.51710    0.96124    1.000
    H91      H        0.96290    0.48000    0.91730    1.000
    H92      H        0.97800    0.57770    0.95220    1.000
    C91      C        0.37760    0.47170    0.40468    1.000
    H93      H        0.36880    0.41770    0.37650    1.000
    C92      C        0.39700    0.61140    0.43520    1.000
    H94      H        0.40470    0.67300    0.43160    1.000
    C93      C        0.39660    0.56760    0.50100    1.000
    H95      H        0.40290    0.59350    0.55010    1.000
    C94      C        0.37480    0.40380    0.53100    1.000
    H96      H        0.37820    0.34740    0.50520    1.000
    H97      H        0.42210    0.40500    0.58400    1.000
    C95      C        0.28970    0.40840    0.54040    1.000
    H98      H        0.28550    0.35740    0.57230    1.000
    H99      H        0.28860    0.46260    0.56990    1.000
    C96      C        0.57640    0.54470    0.25574    1.000
    H100     H        0.57880    0.60720    0.25760    1.000
    C97      C        0.65010    0.49720    0.26317    1.000
    H101     H        0.70140    0.52690    0.26890    1.000
    C98      C        0.64610    0.40440    0.26190    1.000
    H102     H        0.69520    0.37090    0.26690    1.000
    C99      C        0.56950    0.36080    0.25329    1.000
    C100     C        0.49530    0.41210    0.24210    1.000
    C101     C        0.40490    0.37350    0.22020    1.000
    C102     C        0.56940    0.25910    0.25716    1.000
    Cd6      Cd       0.38195    0.57585    0.25050    1.000
    N26      N        0.38436    0.55028    0.37455    1.000
    N27      N        0.26369    0.59834    0.13881    1.000
    N28      N        0.50114    0.50348    0.24590    1.000
    N29      N        0.38525    0.47942    0.48218    1.000
    N30      N        0.15490    0.56908    0.02437    1.000
    O21      O        0.58646    0.21860    0.20459    1.000
    O22      O        0.56098    0.22018    0.31369    1.000
    O23      O        0.34769    0.42155    0.22649    1.000
    O24      O        0.39477    0.29537    0.19542    1.000
    C103     C        0.78250    0.03360    0.41061    1.000
    H103     H        0.77250    0.97220    0.40110    1.000
    C104     C        0.77360    0.17630    0.39731    1.000
    H104     H        0.75520    0.23330    0.37620    1.000
    C105     C        0.84050    0.15990    0.46762    1.000
    H105     H        0.87640    0.20210    0.50350    1.000
    C106     C        0.90950    0.01860    0.54304    1.000
    H106     H        0.91460    0.04570    0.59380    1.000
    H107     H        0.88920    0.95730    0.54210    1.000
    C107     C        0.99870    0.01710    0.53876    1.000
    H108     H        0.03710    0.98000    0.58270    1.000
    H109     H        0.02200    0.07770    0.54780    1.000
    C108     C        0.62240    0.97170    0.09532    1.000
    H110     H        0.63120    0.91770    0.12350    1.000
    C109     C        0.60300    0.11140    0.06480    1.000
    H111     H        0.59530    0.17300    0.06840    1.000
    C110     C        0.60340    0.06760    0.99900    1.000
    H112     H        0.59710    0.09350    0.94990    1.000
    C111     C        0.62520    0.90380    0.96900    1.000
    H113     H        0.62180    0.84740    0.99480    1.000
    H114     H        0.57790    0.90500    0.91600    1.000
    C112     C        0.71030    0.90840    0.95960    1.000
    H115     H        0.71450    0.85740    0.92770    1.000
    H116     H        0.71140    0.96260    0.93010    1.000
    C113     C        0.42360    0.04470    0.24426    1.000
    H117     H        0.42120    0.10720    0.24240    1.000
    C114     C        0.34990    0.99720    0.23683    1.000
    H118     H        0.29860    0.02690    0.23110    1.000
    C115     C        0.35390    0.90440    0.23810    1.000
    H119     H        0.30480    0.87090    0.23310    1.000
    C116     C        0.43050    0.86080    0.24671    1.000
    C117     C        0.50470    0.91210    0.25790    1.000
    C118     C        0.59510    0.87350    0.27980    1.000
    C119     C        0.43060    0.75910    0.24284    1.000
    Cd7      Cd       0.61805    0.07585    0.24950    1.000
    N31      N        0.61564    0.05028    0.12545    1.000
    N32      N        0.73631    0.09834    0.36119    1.000
    N33      N        0.49886    0.00348    0.25410    1.000
    N34      N        0.61475    0.97942    0.01782    1.000
    N35      N        0.84510    0.06908    0.47563    1.000
    O25      O        0.41354    0.71860    0.29541    1.000
    O26      O        0.43902    0.72018    0.18631    1.000
    O27      O        0.65231    0.92155    0.27351    1.000
    O28      O        0.60523    0.79537    0.30458    1.000
    C120     C        0.28250    0.53360    0.91061    1.000
    H120     H        0.27250    0.47220    0.90110    1.000
    C121     C        0.27360    0.67630    0.89731    1.000
    H121     H        0.25520    0.73330    0.87620    1.000
    C122     C        0.34050    0.65990    0.96762    1.000
    H122     H        0.37640    0.70210    0.00350    1.000
    C123     C        0.40950    0.51860    0.04304    1.000
    H123     H        0.41460    0.54570    0.09380    1.000
    H124     H        0.38920    0.45730    0.04210    1.000
    C124     C        0.49870    0.51710    0.03876    1.000
    H125     H        0.53710    0.48000    0.08270    1.000
    H126     H        0.52200    0.57770    0.04780    1.000
    C125     C        0.12240    0.47170    0.59532    1.000
    H127     H        0.13120    0.41770    0.62350    1.000
    C126     C        0.10300    0.61140    0.56480    1.000
    H128     H        0.09530    0.67300    0.56840    1.000
    C127     C        0.10340    0.56760    0.49900    1.000
    H129     H        0.09710    0.59350    0.44990    1.000
    C128     C        0.12520    0.40380    0.46900    1.000
    H130     H        0.12180    0.34740    0.49480    1.000
    H131     H        0.07790    0.40500    0.41600    1.000
    C129     C        0.21030    0.40840    0.45960    1.000
    H132     H        0.21450    0.35740    0.42770    1.000
    H133     H        0.21140    0.46260    0.43010    1.000
    C130     C        0.92360    0.54470    0.74426    1.000
    H134     H        0.92120    0.60720    0.74240    1.000
    C131     C        0.84990    0.49720    0.73683    1.000
    H135     H        0.79860    0.52690    0.73110    1.000
    C132     C        0.85390    0.40440    0.73810    1.000
    H136     H        0.80480    0.37090    0.73310    1.000
    C133     C        0.93050    0.36080    0.74671    1.000
    C134     C        0.00470    0.41210    0.75790    1.000
    C135     C        0.09510    0.37350    0.77980    1.000
    C136     C        0.93060    0.25910    0.74284    1.000
    Cd8      Cd       0.11805    0.57585    0.74950    1.000
    N36      N        0.11564    0.55028    0.62545    1.000
    N37      N        0.23631    0.59834    0.86119    1.000
    N38      N        0.99886    0.50348    0.75410    1.000
    N39      N        0.11475    0.47942    0.51782    1.000
    N40      N        0.34510    0.56908    0.97563    1.000
    O29      O        0.91354    0.21860    0.79541    1.000
    O30      O        0.93902    0.22018    0.68631    1.000
    O31      O        0.15231    0.42155    0.77351    1.000
    O32      O        0.10523    0.29537    0.80458    1.000
