# CIF file generated by openbabel 3.1.0, see https://openbabel.org
data_I
_chemical_name_common 'image0'
_cell_length_a 8.7734
_cell_length_b 33.8944
_cell_length_c 8.7281
_cell_angle_alpha 90
_cell_angle_beta 107.797
_cell_angle_gamma 90
_space_group_name_H-M_alt 'P 1'
_space_group_name_Hall 'P 1'
loop_
    _symmetry_equiv_pos_as_xyz
    x,y,z
loop_
    _atom_site_label
    _atom_site_type_symbol
    _atom_site_fract_x
    _atom_site_fract_y
    _atom_site_fract_z
    _atom_site_occupancy
    Cu1      Cu       0.75056    0.20372    0.48856    1.000
    Cu2      Cu       0.74113    0.04579    0.50020    1.000
    O1       O        0.89244    0.15477    0.61621    1.000
    O2       O        0.85556    0.09036    0.62930    1.000
    O3       O        0.62154    0.15983    0.36632    1.000
    O4       O        0.61490    0.09454    0.34932    1.000
    O5       O        0.62403    0.20725    0.65175    1.000
    O6       O        0.59784    0.24939    0.83652    1.000
    O7       O        0.87777    0.24605    0.62641    1.000
    O8       O        0.86507    0.28762    0.81910    1.000
    O9       O        0.90992    0.04026    0.38102    1.000
    O10      O        0.09150    0.99841    0.34870    1.000
    O11      O        0.57251    0.04115    0.61871    1.000
    O12      O        0.38116    0.99889    0.62720    1.000
    C1       C        0.82020    0.12374    0.56670    1.000
    C2       C        0.67140    0.12590    0.41310    1.000
    C3       C        0.81630    0.25898    0.72900    1.000
    C4       C        0.66620    0.23696    0.74240    1.000
    C5       C        0.00190    0.01076    0.42170    1.000
    C6       C        0.48660    0.01163    0.57130    1.000
    Cu3      Cu       0.24944    0.70372    0.01144    1.000
    Cu4      Cu       0.25887    0.54579    0.99980    1.000
    O13      O        0.10756    0.65477    0.88379    1.000
    O14      O        0.14444    0.59036    0.87070    1.000
    O15      O        0.37846    0.65983    0.13368    1.000
    O16      O        0.38510    0.59454    0.15068    1.000
    O17      O        0.37597    0.70725    0.84825    1.000
    O18      O        0.40216    0.74939    0.66348    1.000
    O19      O        0.12223    0.74605    0.87359    1.000
    O20      O        0.13493    0.78762    0.68090    1.000
    O21      O        0.09008    0.54026    0.11898    1.000
    O22      O        0.90850    0.49841    0.15130    1.000
    O23      O        0.42749    0.54115    0.88129    1.000
    O24      O        0.61884    0.49889    0.87280    1.000
    C7       C        0.17980    0.62374    0.93330    1.000
    C8       C        0.32860    0.62590    0.08690    1.000
    C9       C        0.18370    0.75898    0.77100    1.000
    C10      C        0.33380    0.73696    0.75760    1.000
    C11      C        0.99810    0.51076    0.07830    1.000
    C12      C        0.51340    0.51163    0.92870    1.000
    Cu5      Cu       0.24944    0.79628    0.51144    1.000
    Cu6      Cu       0.25887    0.95421    0.49980    1.000
    O25      O        0.10756    0.84523    0.38379    1.000
    O26      O        0.14444    0.90964    0.37070    1.000
    O27      O        0.37846    0.84017    0.63368    1.000
    O28      O        0.38510    0.90546    0.65068    1.000
    O29      O        0.37597    0.79275    0.34825    1.000
    O30      O        0.40216    0.75061    0.16348    1.000
    O31      O        0.12223    0.75395    0.37359    1.000
    O32      O        0.13493    0.71238    0.18090    1.000
    O33      O        0.09008    0.95974    0.61898    1.000
    O34      O        0.90850    0.00159    0.65130    1.000
    O35      O        0.42749    0.95885    0.38129    1.000
    O36      O        0.61884    0.00111    0.37280    1.000
    C13      C        0.17980    0.87626    0.43330    1.000
    C14      C        0.32860    0.87410    0.58690    1.000
    C15      C        0.18370    0.74102    0.27100    1.000
    C16      C        0.33380    0.76304    0.25760    1.000
    C17      C        0.99810    0.98924    0.57830    1.000
    C18      C        0.51340    0.98837    0.42870    1.000
    Cu7      Cu       0.75056    0.29628    0.98856    1.000
    Cu8      Cu       0.74113    0.45421    0.00020    1.000
    O37      O        0.89244    0.34523    0.11621    1.000
    O38      O        0.85556    0.40964    0.12930    1.000
    O39      O        0.62154    0.34017    0.86632    1.000
    O40      O        0.61490    0.40546    0.84932    1.000
    O41      O        0.62403    0.29275    0.15175    1.000
    O42      O        0.59784    0.25061    0.33652    1.000
    O43      O        0.87777    0.25395    0.12641    1.000
    O44      O        0.86507    0.21238    0.31910    1.000
    O45      O        0.90992    0.45974    0.88102    1.000
    O46      O        0.09150    0.50159    0.84870    1.000
    O47      O        0.57251    0.45885    0.11871    1.000
    O48      O        0.38116    0.50111    0.12720    1.000
    C19      C        0.82020    0.37626    0.06670    1.000
    C20      C        0.67140    0.37410    0.91310    1.000
    C21      C        0.81630    0.24102    0.22900    1.000
    C22      C        0.66620    0.26304    0.24240    1.000
    C23      C        0.00190    0.48924    0.92170    1.000
    C24      C        0.48660    0.48837    0.07130    1.000
