# CIF file generated by openbabel 3.1.0, see https://openbabel.org
data_I
_chemical_name_common 'TIFHAT_charged'
_cell_length_a 20.5381
_cell_length_b 20.5381
_cell_length_c 21.0268
_cell_angle_alpha 71.8834
_cell_angle_beta 71.8772
_cell_angle_gamma 111.296
_space_group_name_H-M_alt 'P 1'
_space_group_name_Hall 'P 1'
loop_
    _symmetry_equiv_pos_as_xyz
    x,y,z
loop_
    _atom_site_label
    _atom_site_type_symbol
    _atom_site_fract_x
    _atom_site_fract_y
    _atom_site_fract_z
    _atom_site_occupancy
    Nd1      Nd       0.11501    0.35000    0.78033    1.000
    Nd2      Nd       0.36967    0.10466    0.28033    1.000
    H1       H        0.95180    0.26240    0.97580    1.000
    H2       H        0.83780    0.24890    0.05190    1.000
    H3       H        0.74430    0.18540    0.92490    1.000
    H4       H        0.91310    0.23490    0.77880    1.000
    H5       H        0.82080    0.17770    0.81750    1.000
    H6       H        0.87460    0.14430    0.83450    1.000
    H7       H        0.62980    0.14340    0.01440    1.000
    H8       H        0.51660    0.13610    0.08770    1.000
    H9       H        0.74470    0.26650    0.09600    1.000
    H10      H        0.60620    0.30890    0.17730    1.000
    H11      H        0.67880    0.30400    0.18280    1.000
    H12      H        0.59190    0.23290    0.24160    1.000
    H13      H        0.17960    0.51150    0.57910    1.000
    H14      H        0.18750    0.62470    0.50460    1.000
    H15      H        0.24750    0.71980    0.63190    1.000
    H16      H        0.20540    0.54830    0.77410    1.000
    H17      H        0.24990    0.64070    0.74240    1.000
    H18      H        0.29670    0.60010    0.71700    1.000
    H19      H        0.29920    0.83010    0.54190    1.000
    H20      H        0.31370    0.94970    0.46520    1.000
    H21      H        0.17050    0.72650    0.45880    1.000
    H22      H        0.15500    0.89030    0.36590    1.000
    H23      H        0.12920    0.80360    0.37860    1.000
    H24      H        0.21280    0.87490    0.31190    1.000
    H25      H        0.26180    0.07240    0.47580    1.000
    H26      H        0.19920    0.11030    0.55190    1.000
    H27      H        0.38970    0.33080    0.42490    1.000
    H28      H        0.48630    0.30810    0.27880    1.000
    H29      H        0.50480    0.36170    0.31750    1.000
    H30      H        0.52120    0.29090    0.33450    1.000
    H31      H        0.34220    0.35580    0.51440    1.000
    H32      H        0.27620    0.39570    0.58770    1.000
    H33      H        0.13750    0.15930    0.59600    1.000
    H34      H        0.01380    0.21650    0.67730    1.000
    H35      H        0.01320    0.13840    0.68280    1.000
    H36      H        0.02550    0.16650    0.74160    1.000
    H37      H        0.40940    0.24130    0.07910    1.000
    H38      H        0.37070    0.30790    0.00460    1.000
    H39      H        0.14830    0.12060    0.13190    1.000
    H40      H        0.17760    0.02050    0.27410    1.000
    H41      H        0.11690    0.00770    0.24240    1.000
    H42      H        0.18290    0.98630    0.21700    1.000
    H43      H        0.12800    0.15890    0.04190    1.000
    H44      H        0.08510    0.22110    0.96520    1.000
    H45      H        0.31470    0.37070    0.95880    1.000
    H46      H        0.24380    0.47910    0.86590    1.000
    H47      H        0.31780    0.49220    0.87860    1.000
    H48      H        0.31320    0.47530    0.81190    1.000
    C1       C        0.90890    0.24570    0.96640    1.000
    C2       C        0.84150    0.23840    0.01130    1.000
    C3       C        0.77580    0.21490    0.99750    1.000
    C4       C        0.78610    0.20010    0.93600    1.000
    C5       C        0.85590    0.20640    0.89030    1.000
    C6       C        0.86720    0.18930    0.82430    1.000
    C7       C        0.70060    0.20740    0.04560    1.000
    C8       C        0.63070    0.16750    0.04520    1.000
    C9       C        0.56330    0.16300    0.08890    1.000
    C10      C        0.63070    0.23710    0.13780    1.000
    C11      C        0.69850    0.24070    0.09360    1.000
    C12      C        0.62650    0.27410    0.18960    1.000
    C13      C        0.19390    0.55420    0.58890    1.000
    C14      C        0.19880    0.62170    0.54470    1.000
    C15      C        0.22090    0.68850    0.55860    1.000
    C16      C        0.23450    0.67840    0.62010    1.000
    C17      C        0.22990    0.60900    0.66570    1.000
    C18      C        0.24700    0.59870    0.73050    1.000
    C19      C        0.23140    0.76420    0.50940    1.000
    C20      C        0.27530    0.83170    0.51100    1.000
    C21      C        0.28320    0.90350    0.46490    1.000
    C22      C        0.20870    0.84260    0.41530    1.000
    C23      C        0.19970    0.77170    0.46100    1.000
    C24      C        0.17320    0.85380    0.36320    1.000
    C25      C        0.28790    0.12470    0.46640    1.000
    C26      C        0.25030    0.14720    0.51130    1.000
    C27      C        0.28760    0.22670    0.49750    1.000
    C28      C        0.36390    0.27790    0.43600    1.000
    C29      C        0.40330    0.25380    0.39030    1.000
    C30      C        0.48640    0.30850    0.32430    1.000
    C31      C        0.24700    0.25380    0.54560    1.000
    C32      C        0.28730    0.32410    0.54520    1.000
    C33      C        0.24810    0.34780    0.58890    1.000
    C34      C        0.12510    0.23150    0.63780    1.000
    C35      C        0.16570    0.20790    0.59360    1.000
    C36      C        0.03630    0.18390    0.68960    1.000
    C37      C        0.35690    0.21720    0.08890    1.000
    C38      C        0.33360    0.25650    0.04470    1.000
    C39      C        0.25290    0.22050    0.05860    1.000
    C40      C        0.20150    0.14540    0.12010    1.000
    C41      C        0.22530    0.10440    0.16570    1.000
    C42      C        0.17080    0.02250    0.23050    1.000
    C43      C        0.22640    0.25920    0.00940    1.000
    C44      C        0.15730    0.21370    0.01100    1.000
    C45      C        0.13160    0.25190    0.96490    1.000
    C46      C        0.24210    0.37600    0.91530    1.000
    C47      C        0.26730    0.33930    0.96100    1.000
    C48      C        0.28300    0.46360    0.86320    1.000
    N1       N        0.91740    0.22920    0.90660    1.000
    N2       N        0.56350    0.19710    0.13400    1.000
    N3       N        0.21010    0.54940    0.64810    1.000
    N4       N        0.24930    0.90740    0.42170    1.000
    N5       N        0.36420    0.17600    0.40660    1.000
    N6       N        0.16890    0.30250    0.63400    1.000
    N7       N        0.30250    0.14180    0.14810    1.000
    N8       N        0.17090    0.32900    0.92170    1.000
    O1       O        0.98410    0.23420    0.86690    1.000
    O2       O        0.49700    0.19470    0.17450    1.000
    O3       O        0.20830    0.48360    0.68930    1.000
    O4       O        0.25540    0.97650    0.38310    1.000
    O5       O        0.11820    0.22460    0.82560    1.000
    O6       O        0.25590    0.37950    0.73580    1.000
    O7       O        0.05110    0.41330    0.83980    1.000
    O8       O        0.03400    0.38320    0.72240    1.000
    O9       O        0.39890    0.14900    0.36690    1.000
    O10      O        0.13080    0.32850    0.67450    1.000
    O11      O        0.32710    0.10240    0.18930    1.000
    O12      O        0.14040    0.36150    0.88310    1.000
    O13      O        0.44980    0.05620    0.32560    1.000
    O14      O        0.38470    0.00830    0.23580    1.000
    O15      O        0.24690    0.10910    0.33980    1.000
    O16      O        0.39440    0.24360    0.22240    1.000
    Nd3      Nd       0.63033    0.89534    0.71967    1.000
    Nd4      Nd       0.88499    0.65000    0.21967    1.000
    H49      H        0.73820    0.92760    0.52420    1.000
    H50      H        0.80080    0.88970    0.44810    1.000
    H51      H        0.61030    0.66920    0.57510    1.000
    H52      H        0.51370    0.69190    0.72120    1.000
    H53      H        0.49520    0.63830    0.68250    1.000
    H54      H        0.47880    0.70910    0.66550    1.000
    H55      H        0.65780    0.64420    0.48560    1.000
    H56      H        0.72380    0.60430    0.41230    1.000
    H57      H        0.86250    0.84070    0.40400    1.000
    H58      H        0.98620    0.78350    0.32270    1.000
    H59      H        0.98680    0.86160    0.31720    1.000
    H60      H        0.97450    0.83350    0.25840    1.000
    H61      H        0.59060    0.75870    0.92090    1.000
    H62      H        0.62930    0.69210    0.99540    1.000
    H63      H        0.85170    0.87940    0.86810    1.000
    H64      H        0.82240    0.97950    0.72590    1.000
    H65      H        0.88310    0.99230    0.75760    1.000
    H66      H        0.81710    0.01370    0.78300    1.000
    H67      H        0.87200    0.84110    0.95810    1.000
    H68      H        0.91490    0.77890    0.03480    1.000
    H69      H        0.68530    0.62930    0.04120    1.000
    H70      H        0.75620    0.52090    0.13410    1.000
    H71      H        0.68220    0.50780    0.12140    1.000
    H72      H        0.68680    0.52470    0.18810    1.000
    H73      H        0.04820    0.73760    0.02420    1.000
    H74      H        0.16220    0.75110    0.94810    1.000
    H75      H        0.25570    0.81460    0.07510    1.000
    H76      H        0.08690    0.76510    0.22120    1.000
    H77      H        0.17920    0.82230    0.18250    1.000
    H78      H        0.12540    0.85570    0.16550    1.000
    H79      H        0.37020    0.85660    0.98560    1.000
    H80      H        0.48340    0.86390    0.91230    1.000
    H81      H        0.25530    0.73350    0.90400    1.000
    H82      H        0.39380    0.69110    0.82270    1.000
    H83      H        0.32120    0.69600    0.81720    1.000
    H84      H        0.40810    0.76710    0.75840    1.000
    H85      H        0.82040    0.48850    0.42090    1.000
    H86      H        0.81250    0.37530    0.49540    1.000
    H87      H        0.75250    0.28020    0.36810    1.000
    H88      H        0.79460    0.45170    0.22590    1.000
    H89      H        0.75010    0.35930    0.25760    1.000
    H90      H        0.70330    0.39990    0.28300    1.000
    H91      H        0.70080    0.16990    0.45810    1.000
    H92      H        0.68630    0.05030    0.53480    1.000
    H93      H        0.82950    0.27350    0.54120    1.000
    H94      H        0.84500    0.10970    0.63410    1.000
    H95      H        0.87080    0.19640    0.62140    1.000
    H96      H        0.78720    0.12510    0.68810    1.000
    C49      C        0.71210    0.87530    0.53360    1.000
    C50      C        0.74970    0.85280    0.48870    1.000
    C51      C        0.71240    0.77330    0.50250    1.000
    C52      C        0.63610    0.72210    0.56400    1.000
    C53      C        0.59670    0.74620    0.60970    1.000
    C54      C        0.51360    0.69150    0.67570    1.000
    C55      C        0.75300    0.74620    0.45440    1.000
    C56      C        0.71270    0.67590    0.45480    1.000
    C57      C        0.75190    0.65220    0.41110    1.000
    C58      C        0.87490    0.76850    0.36220    1.000
    C59      C        0.83430    0.79210    0.40640    1.000
    C60      C        0.96370    0.81610    0.31040    1.000
    C61      C        0.64310    0.78280    0.91110    1.000
    C62      C        0.66640    0.74350    0.95530    1.000
    C63      C        0.74710    0.77950    0.94140    1.000
    C64      C        0.79850    0.85460    0.87990    1.000
    C65      C        0.77470    0.89560    0.83430    1.000
    C66      C        0.82920    0.97750    0.76950    1.000
    C67      C        0.77360    0.74080    0.99060    1.000
    C68      C        0.84270    0.78630    0.98900    1.000
    C69      C        0.86840    0.74810    0.03510    1.000
    C70      C        0.75790    0.62400    0.08470    1.000
    C71      C        0.73270    0.66070    0.03900    1.000
    C72      C        0.71700    0.53640    0.13680    1.000
    C73      C        0.09110    0.75430    0.03360    1.000
    C74      C        0.15850    0.76160    0.98870    1.000
    C75      C        0.22420    0.78510    0.00250    1.000
    C76      C        0.21390    0.79990    0.06400    1.000
    C77      C        0.14410    0.79360    0.10970    1.000
    C78      C        0.13280    0.81070    0.17570    1.000
    C79      C        0.29940    0.79260    0.95440    1.000
    C80      C        0.36930    0.83250    0.95480    1.000
    C81      C        0.43670    0.83700    0.91110    1.000
    C82      C        0.36930    0.76290    0.86220    1.000
    C83      C        0.30150    0.75930    0.90640    1.000
    C84      C        0.37350    0.72590    0.81040    1.000
    C85      C        0.80610    0.44580    0.41110    1.000
    C86      C        0.80120    0.37830    0.45530    1.000
    C87      C        0.77910    0.31150    0.44140    1.000
    C88      C        0.76550    0.32160    0.37990    1.000
    C89      C        0.77010    0.39100    0.33430    1.000
    C90      C        0.75300    0.40130    0.26950    1.000
    C91      C        0.76860    0.23580    0.49060    1.000
    C92      C        0.72470    0.16830    0.48900    1.000
    C93      C        0.71680    0.09650    0.53510    1.000
    C94      C        0.79130    0.15740    0.58470    1.000
    C95      C        0.80030    0.22830    0.53900    1.000
    C96      C        0.82680    0.14620    0.63680    1.000
    N9       N        0.63580    0.82400    0.59340    1.000
    N10      N        0.83110    0.69750    0.36600    1.000
    N11      N        0.69750    0.85820    0.85190    1.000
    N12      N        0.82910    0.67100    0.07830    1.000
    N13      N        0.08260    0.77080    0.09340    1.000
    N14      N        0.43650    0.80290    0.86600    1.000
    N15      N        0.78990    0.45060    0.35190    1.000
    N16      N        0.75070    0.09260    0.57830    1.000
    O17      O        0.60110    0.85100    0.63310    1.000
    O18      O        0.86920    0.67150    0.32550    1.000
    O19      O        0.67290    0.89760    0.81070    1.000
    O20      O        0.85960    0.63850    0.11690    1.000
    O21      O        0.55020    0.94380    0.67440    1.000
    O22      O        0.61530    0.99170    0.76420    1.000
    O23      O        0.75310    0.89090    0.66020    1.000
    O24      O        0.60560    0.75640    0.77760    1.000
    O25      O        0.01590    0.76580    0.13310    1.000
    O26      O        0.50300    0.80530    0.82550    1.000
    O27      O        0.79170    0.51640    0.31070    1.000
    O28      O        0.74460    0.02350    0.61690    1.000
    O29      O        0.88180    0.77540    0.17440    1.000
    O30      O        0.74410    0.62050    0.26420    1.000
    O31      O        0.94890    0.58670    0.16020    1.000
    O32      O        0.96600    0.61680    0.27760    1.000
    Cl1      Cl       0.97760    0.62760    0.45020    1.000
    O33      O        0.02950    0.61540    0.47750    1.000
    O34      O        0.92070    0.57140    0.45790    1.000
    O35      O        0.96640    0.68380    0.46960    1.000
    O36      O        0.02350    0.67200    0.36730    1.000
    Cl2      Cl       0.35055    0.00109    0.07504    1.000
    O37      O        0.31210    0.95350    0.15640    1.000
    O38      O        0.35680    0.95610    0.03930    1.000
    O39      O        0.30150    0.02780    0.05810    1.000
    O40      O        0.42550    0.06140    0.05270    1.000
    Cl3      Cl       0.94845    0.02688    0.25583    1.000
    O41      O        0.96800    0.00100    0.31340    1.000
    O42      O        0.92430    0.96730    0.23400    1.000
    O43      O        0.00820    0.09900    0.19900    1.000
    O44      O        0.88490    0.03420    0.28610    1.000
    Cl4      Cl       0.57780    0.42780    0.04980    1.000
    O45      O        0.59290    0.50700    0.02250    1.000
    O46      O        0.52930    0.37860    0.04210    1.000
    O47      O        0.65340    0.43600    0.03040    1.000
    O48      O        0.53930    0.39080    0.13270    1.000
    Cl5      Cl       0.57613    0.42559    0.42496    1.000
    O49      O        0.60990    0.46850    0.34360    1.000
    O50      O        0.49540    0.39610    0.46070    1.000
    O51      O        0.58590    0.35960    0.44190    1.000
    O52      O        0.61410    0.47820    0.44730    1.000
    Cl6      Cl       0.78271    0.20428    0.24417    1.000
    O53      O        0.81440    0.28140    0.18660    1.000
    O54      O        0.70130    0.15830    0.26600    1.000
    O55      O        0.79800    0.20720    0.30100    1.000
    O56      O        0.82030    0.17100    0.21390    1.000
    Cl7      Cl       0.02240    0.37240    0.54980    1.000
    O57      O        0.97050    0.38460    0.52250    1.000
    O58      O        0.07930    0.42860    0.54210    1.000
    O59      O        0.03360    0.31620    0.53040    1.000
    O60      O        0.97650    0.32800    0.63270    1.000
    Cl8      Cl       0.64945    0.99891    0.92496    1.000
    O61      O        0.68790    0.04650    0.84360    1.000
    O62      O        0.64320    0.04390    0.96070    1.000
    O63      O        0.69850    0.97220    0.94190    1.000
    O64      O        0.57450    0.93860    0.94730    1.000
    Cl9      Cl       0.05155    0.97312    0.74417    1.000
    O65      O        0.03200    0.99900    0.68660    1.000
    O66      O        0.07570    0.03270    0.76600    1.000
    O67      O        0.99180    0.90100    0.80100    1.000
    O68      O        0.11510    0.96580    0.71390    1.000
    Cl10     Cl       0.42220    0.57220    0.95020    1.000
    O69      O        0.40710    0.49300    0.97750    1.000
    O70      O        0.47070    0.62140    0.95790    1.000
    O71      O        0.34660    0.56400    0.96960    1.000
    O72      O        0.46070    0.60920    0.86730    1.000
    Cl11     Cl       0.42387    0.57441    0.57504    1.000
    O73      O        0.39010    0.53150    0.65640    1.000
    O74      O        0.50460    0.60390    0.53930    1.000
    O75      O        0.41410    0.64040    0.55810    1.000
    O76      O        0.38590    0.52180    0.55270    1.000
    Cl12     Cl       0.21729    0.79572    0.75583    1.000
    O77      O        0.18560    0.71860    0.81340    1.000
    O78      O        0.29870    0.84170    0.73400    1.000
    O79      O        0.20200    0.79280    0.69900    1.000
    O80      O        0.17970    0.82900    0.78610    1.000
