# CIF file generated by openbabel 3.1.0, see https://openbabel.org
data_I
_chemical_name_common 'image0'
_cell_length_a 17.388
_cell_length_b 12.418
_cell_length_c 19.7091
_cell_angle_alpha 90
_cell_angle_beta 90.854
_cell_angle_gamma 90
_space_group_name_H-M_alt 'P 1'
_space_group_name_Hall 'P 1'
loop_
    _symmetry_equiv_pos_as_xyz
    x,y,z
loop_
    _atom_site_label
    _atom_site_type_symbol
    _atom_site_fract_x
    _atom_site_fract_y
    _atom_site_fract_z
    _atom_site_occupancy
    Mn1      Mn       0.66884    0.00370    0.83619    1.000
    Mn2      Mn       0.65730    0.26640    0.74232    1.000
    Mn3      Mn       0.66135    0.00130    0.65645    1.000
    O1       O        0.63140    0.09400    0.74710    1.000
    O2       O        0.69860    0.13580    0.90240    1.000
    O3       O        0.67020    0.29130    0.85060    1.000
    C1       C        0.69810    0.23470    0.89860    1.000
    C2       C        0.73360    0.29660    0.95770    1.000
    C3       C        0.79760    0.26070    0.99080    1.000
    H1       H        0.82170    0.19570    0.97730    1.000
    C4       C        0.82800    0.32090    0.04540    1.000
    H2       H        0.87430    0.29750    0.06700    1.000
    N1       N        0.79370    0.40940    0.06770    1.000
    C5       C        0.72950    0.44190    0.03580    1.000
    H3       H        0.70370    0.50340    0.05290    1.000
    C6       C        0.69890    0.39130    0.97980    1.000
    H4       H        0.65520    0.42000    0.95660    1.000
    O4       O        0.64980    0.84370    0.79840    1.000
    O5       O        0.61250    0.84760    0.68980    1.000
    C7       C        0.63700    0.80100    0.74240    1.000
    C8       C        0.64840    0.68070    0.73850    1.000
    C9       C        0.62970    0.62110    0.68170    1.000
    H5       H        0.61120    0.65560    0.64160    1.000
    C10      C        0.63830    0.51010    0.68380    1.000
    H6       H        0.62320    0.47000    0.64480    1.000
    N2       N        0.66620    0.45660    0.73700    1.000
    C11      C        0.68670    0.51490    0.79210    1.000
    H7       H        0.70790    0.47850    0.83040    1.000
    C12      C        0.67780    0.62800    0.79520    1.000
    H8       H        0.69150    0.66680    0.83510    1.000
    O6       O        0.78710    0.99820    0.80730    1.000
    O7       O        0.76970    0.95270    0.69790    1.000
    C13      C        0.80760    0.95690    0.75270    1.000
    C14      C        0.88530    0.90450    0.75200    1.000
    C15      C        0.93180    0.89920    0.81050    1.000
    H9       H        0.91450    0.92910    0.85190    1.000
    C16      C        0.00280    0.85030    0.80790    1.000
    H10      H        0.03320    0.84600    0.84830    1.000
    N3       N        0.03090    0.80840    0.75040    1.000
    C17      C        0.98590    0.81130    0.69520    1.000
    H11      H        0.00430    0.78010    0.65450    1.000
    C18      C        0.91390    0.85760    0.69420    1.000
    H12      H        0.88380    0.85710    0.65360    1.000
    O8       O        0.64850    0.27690    0.63430    1.000
    O9       O        0.71160    0.13030    0.60300    1.000
    C19      C        0.69350    0.22620    0.59660    1.000
    C20      C        0.72980    0.28830    0.53970    1.000
    C21      C        0.80090    0.26120    0.51540    1.000
    H13      H        0.82810    0.20110    0.53350    1.000
    C22      C        0.83240    0.32300    0.46410    1.000
    H14      H        0.88190    0.30410    0.44810    1.000
    N4       N        0.79690    0.40700    0.43640    1.000
    C23      C        0.72680    0.43290    0.45890    1.000
    H15      H        0.70030    0.49150    0.43830    1.000
    C24      C        0.69130    0.37720    0.51140    1.000
    H16      H        0.64240    0.39890    0.52750    1.000
    Mn4      Mn       0.16884    0.50370    0.83619    1.000
    Mn5      Mn       0.15730    0.76640    0.74232    1.000
    Mn6      Mn       0.16135    0.50130    0.65645    1.000
    O10      O        0.13140    0.59400    0.74710    1.000
    O11      O        0.19860    0.63580    0.90240    1.000
    O12      O        0.17020    0.79130    0.85060    1.000
    C25      C        0.19810    0.73470    0.89860    1.000
    C26      C        0.23360    0.79660    0.95770    1.000
    C27      C        0.29760    0.76070    0.99080    1.000
    H17      H        0.32170    0.69570    0.97730    1.000
    C28      C        0.32800    0.82090    0.04540    1.000
    H18      H        0.37430    0.79750    0.06700    1.000
    N5       N        0.29370    0.90940    0.06770    1.000
    C29      C        0.22950    0.94190    0.03580    1.000
    H19      H        0.20370    0.00340    0.05290    1.000
    C30      C        0.19890    0.89130    0.97980    1.000
    H20      H        0.15520    0.92000    0.95660    1.000
    O13      O        0.14980    0.34370    0.79840    1.000
    O14      O        0.11250    0.34760    0.68980    1.000
    C31      C        0.13700    0.30100    0.74240    1.000
    C32      C        0.14840    0.18070    0.73850    1.000
    C33      C        0.12970    0.12110    0.68170    1.000
    H21      H        0.11120    0.15560    0.64160    1.000
    C34      C        0.13830    0.01010    0.68380    1.000
    H22      H        0.12320    0.97000    0.64480    1.000
    N6       N        0.16620    0.95660    0.73700    1.000
    C35      C        0.18670    0.01490    0.79210    1.000
    H23      H        0.20790    0.97850    0.83040    1.000
    C36      C        0.17780    0.12800    0.79520    1.000
    H24      H        0.19150    0.16680    0.83510    1.000
    O15      O        0.28710    0.49820    0.80730    1.000
    O16      O        0.26970    0.45270    0.69790    1.000
    C37      C        0.30760    0.45690    0.75270    1.000
    C38      C        0.38530    0.40450    0.75200    1.000
    C39      C        0.43180    0.39920    0.81050    1.000
    H25      H        0.41450    0.42910    0.85190    1.000
    C40      C        0.50280    0.35030    0.80790    1.000
    H26      H        0.53320    0.34600    0.84830    1.000
    N7       N        0.53090    0.30840    0.75040    1.000
    C41      C        0.48590    0.31130    0.69520    1.000
    H27      H        0.50430    0.28010    0.65450    1.000
    C42      C        0.41390    0.35760    0.69420    1.000
    H28      H        0.38380    0.35710    0.65360    1.000
    O17      O        0.14850    0.77690    0.63430    1.000
    O18      O        0.21160    0.63030    0.60300    1.000
    C43      C        0.19350    0.72620    0.59660    1.000
    C44      C        0.22980    0.78830    0.53970    1.000
    C45      C        0.30090    0.76120    0.51540    1.000
    H29      H        0.32810    0.70110    0.53350    1.000
    C46      C        0.33240    0.82300    0.46410    1.000
    H30      H        0.38190    0.80410    0.44810    1.000
    N8       N        0.29690    0.90700    0.43640    1.000
    C47      C        0.22680    0.93290    0.45890    1.000
    H31      H        0.20030    0.99150    0.43830    1.000
    C48      C        0.19130    0.87720    0.51140    1.000
    H32      H        0.14240    0.89890    0.52750    1.000
    Mn7      Mn       0.33116    0.00370    0.16381    1.000
    Mn8      Mn       0.34270    0.26640    0.25768    1.000
    Mn9      Mn       0.33865    0.00130    0.34355    1.000
    O19      O        0.36860    0.09400    0.25290    1.000
    O20      O        0.30140    0.13580    0.09760    1.000
    O21      O        0.32980    0.29130    0.14940    1.000
    C49      C        0.30190    0.23470    0.10140    1.000
    C50      C        0.26640    0.29660    0.04230    1.000
    C51      C        0.20240    0.26070    0.00920    1.000
    H33      H        0.17830    0.19570    0.02270    1.000
    C52      C        0.17200    0.32090    0.95460    1.000
    H34      H        0.12570    0.29750    0.93300    1.000
    N9       N        0.20630    0.40940    0.93230    1.000
    C53      C        0.27050    0.44190    0.96420    1.000
    H35      H        0.29630    0.50340    0.94710    1.000
    C54      C        0.30110    0.39130    0.02020    1.000
    H36      H        0.34480    0.42000    0.04340    1.000
    O22      O        0.35020    0.84370    0.20160    1.000
    O23      O        0.38750    0.84760    0.31020    1.000
    C55      C        0.36300    0.80100    0.25760    1.000
    C56      C        0.35160    0.68070    0.26150    1.000
    C57      C        0.37030    0.62110    0.31830    1.000
    H37      H        0.38880    0.65560    0.35840    1.000
    C58      C        0.36170    0.51010    0.31620    1.000
    H38      H        0.37680    0.47000    0.35520    1.000
    N10      N        0.33380    0.45660    0.26300    1.000
    C59      C        0.31330    0.51490    0.20790    1.000
    H39      H        0.29210    0.47850    0.16960    1.000
    C60      C        0.32220    0.62800    0.20480    1.000
    H40      H        0.30850    0.66680    0.16490    1.000
    O24      O        0.21290    0.99820    0.19270    1.000
    O25      O        0.23030    0.95270    0.30210    1.000
    C61      C        0.19240    0.95690    0.24730    1.000
    C62      C        0.11470    0.90450    0.24800    1.000
    C63      C        0.06820    0.89920    0.18950    1.000
    H41      H        0.08550    0.92910    0.14810    1.000
    C64      C        0.99720    0.85030    0.19210    1.000
    H42      H        0.96680    0.84600    0.15170    1.000
    N11      N        0.96910    0.80840    0.24960    1.000
    C65      C        0.01410    0.81130    0.30480    1.000
    H43      H        0.99570    0.78010    0.34550    1.000
    C66      C        0.08610    0.85760    0.30580    1.000
    H44      H        0.11620    0.85710    0.34640    1.000
    O26      O        0.35150    0.27690    0.36570    1.000
    O27      O        0.28840    0.13030    0.39700    1.000
    C67      C        0.30650    0.22620    0.40340    1.000
    C68      C        0.27020    0.28830    0.46030    1.000
    C69      C        0.19910    0.26120    0.48460    1.000
    H45      H        0.17190    0.20110    0.46650    1.000
    C70      C        0.16760    0.32300    0.53590    1.000
    H46      H        0.11810    0.30410    0.55190    1.000
    N12      N        0.20310    0.40700    0.56360    1.000
    C71      C        0.27320    0.43290    0.54110    1.000
    H47      H        0.29970    0.49150    0.56170    1.000
    C72      C        0.30870    0.37720    0.48860    1.000
    H48      H        0.35760    0.39890    0.47250    1.000
    Mn10     Mn       0.83116    0.50370    0.16381    1.000
    Mn11     Mn       0.84270    0.76640    0.25768    1.000
    Mn12     Mn       0.83865    0.50130    0.34355    1.000
    O28      O        0.86860    0.59400    0.25290    1.000
    O29      O        0.80140    0.63580    0.09760    1.000
    O30      O        0.82980    0.79130    0.14940    1.000
    C73      C        0.80190    0.73470    0.10140    1.000
    C74      C        0.76640    0.79660    0.04230    1.000
    C75      C        0.70240    0.76070    0.00920    1.000
    H49      H        0.67830    0.69570    0.02270    1.000
    C76      C        0.67200    0.82090    0.95460    1.000
    H50      H        0.62570    0.79750    0.93300    1.000
    N13      N        0.70630    0.90940    0.93230    1.000
    C77      C        0.77050    0.94190    0.96420    1.000
    H51      H        0.79630    0.00340    0.94710    1.000
    C78      C        0.80110    0.89130    0.02020    1.000
    H52      H        0.84480    0.92000    0.04340    1.000
    O31      O        0.85020    0.34370    0.20160    1.000
    O32      O        0.88750    0.34760    0.31020    1.000
    C79      C        0.86300    0.30100    0.25760    1.000
    C80      C        0.85160    0.18070    0.26150    1.000
    C81      C        0.87030    0.12110    0.31830    1.000
    H53      H        0.88880    0.15560    0.35840    1.000
    C82      C        0.86170    0.01010    0.31620    1.000
    H54      H        0.87680    0.97000    0.35520    1.000
    N14      N        0.83380    0.95660    0.26300    1.000
    C83      C        0.81330    0.01490    0.20790    1.000
    H55      H        0.79210    0.97850    0.16960    1.000
    C84      C        0.82220    0.12800    0.20480    1.000
    H56      H        0.80850    0.16680    0.16490    1.000
    O33      O        0.71290    0.49820    0.19270    1.000
    O34      O        0.73030    0.45270    0.30210    1.000
    C85      C        0.69240    0.45690    0.24730    1.000
    C86      C        0.61470    0.40450    0.24800    1.000
    C87      C        0.56820    0.39920    0.18950    1.000
    H57      H        0.58550    0.42910    0.14810    1.000
    C88      C        0.49720    0.35030    0.19210    1.000
    H58      H        0.46680    0.34600    0.15170    1.000
    N15      N        0.46910    0.30840    0.24960    1.000
    C89      C        0.51410    0.31130    0.30480    1.000
    H59      H        0.49570    0.28010    0.34550    1.000
    C90      C        0.58610    0.35760    0.30580    1.000
    H60      H        0.61620    0.35710    0.34640    1.000
    O35      O        0.85150    0.77690    0.36570    1.000
    O36      O        0.78840    0.63030    0.39700    1.000
    C91      C        0.80650    0.72620    0.40340    1.000
    C92      C        0.77020    0.78830    0.46030    1.000
    C93      C        0.69910    0.76120    0.48460    1.000
    H61      H        0.67190    0.70110    0.46650    1.000
    C94      C        0.66760    0.82300    0.53590    1.000
    H62      H        0.61810    0.80410    0.55190    1.000
    N16      N        0.70310    0.90700    0.56360    1.000
    C95      C        0.77320    0.93290    0.54110    1.000
    H63      H        0.79970    0.99150    0.56170    1.000
    C96      C        0.80870    0.87720    0.48860    1.000
    H64      H        0.85760    0.89890    0.47250    1.000
