# CIF file generated by openbabel 3.1.0, see https://openbabel.org
data_I
_chemical_name_common 'MUKRIU_clean'
_cell_length_a 8.2412
_cell_length_b 10.8347
_cell_length_c 22.8445
_cell_angle_alpha 82.9155
_cell_angle_beta 79.6083
_cell_angle_gamma 67.6467
_space_group_name_H-M_alt 'P 1'
_space_group_name_Hall 'P 1'
loop_
    _symmetry_equiv_pos_as_xyz
    x,y,z
loop_
    _atom_site_label
    _atom_site_type_symbol
    _atom_site_fract_x
    _atom_site_fract_y
    _atom_site_fract_z
    _atom_site_occupancy
    Ag1      Ag       0.14057    0.11663    0.15297    1.000
    Ag2      Ag       0.41017    0.38337    0.34703    1.000
    Ag3      Ag       0.85943    0.88337    0.84703    1.000
    Ag4      Ag       0.58983    0.61663    0.65297    1.000
    H1       H        0.24800    0.15610    0.99530    1.000
    H2       H        0.81760    0.37410    0.09350    1.000
    H3       H        0.67010    0.86050    0.72210    1.000
    H4       H        0.61750    0.52950    0.79530    1.000
    H5       H        0.99180    0.97320    0.07020    1.000
    H6       H        0.48530    0.82050    0.09910    1.000
    H7       H        0.39940    0.34390    0.50470    1.000
    H8       H        0.28520    0.12590    0.40650    1.000
    H9       H        0.25270    0.63950    0.77790    1.000
    H10      H        0.94230    0.97050    0.70470    1.000
    H11      H        0.03520    0.52680    0.42980    1.000
    H12      H        0.40490    0.67950    0.40090    1.000
    H13      H        0.75200    0.84390    0.00470    1.000
    H14      H        0.18240    0.62590    0.90650    1.000
    H15      H        0.32990    0.13950    0.27790    1.000
    H16      H        0.38250    0.47050    0.20470    1.000
    H17      H        0.00820    0.02680    0.92980    1.000
    H18      H        0.51470    0.17950    0.90090    1.000
    H19      H        0.60060    0.65610    0.49530    1.000
    H20      H        0.71480    0.87410    0.59350    1.000
    H21      H        0.74730    0.36050    0.22210    1.000
    H22      H        0.05770    0.02950    0.29530    1.000
    H23      H        0.96480    0.47320    0.57020    1.000
    H24      H        0.59510    0.32050    0.59910    1.000
    C1       C        0.62336    0.58377    0.02051    1.000
    C2       C        0.76676    0.50018    0.97910    1.000
    C3       C        0.77415    0.53066    0.91824    1.000
    C4       C        0.64985    0.64463    0.89407    1.000
    C5       C        0.51898    0.73016    0.93328    1.000
    C6       C        0.50542    0.70269    0.99427    1.000
    C7       C        0.13662    0.22446    0.00670    1.000
    C8       C        0.90670    0.33920    0.06080    1.000
    C9       C        0.66410    0.79066    0.75094    1.000
    C10      C        0.63540    0.61202    0.78918    1.000
    C11      C        0.11553    0.92223    0.06551    1.000
    C12      C        0.37962    0.84196    0.08240    1.000
    C13      C        0.22764    0.91623    0.47949    1.000
    C14      C        0.24604    0.99982    0.52090    1.000
    C15      C        0.22305    0.96934    0.58176    1.000
    C16      C        0.18855    0.85537    0.60593    1.000
    C17      C        0.18242    0.76984    0.56672    1.000
    C18      C        0.20238    0.79731    0.50573    1.000
    C19      C        0.36778    0.27554    0.49330    1.000
    C20      C        0.30670    0.16080    0.43920    1.000
    C21      C        0.20570    0.70934    0.74906    1.000
    C22      C        0.03660    0.88798    0.71082    1.000
    C23      C        0.10327    0.57777    0.43449    1.000
    C24      C        0.30398    0.65804    0.41760    1.000
    C25      C        0.37664    0.41623    0.97949    1.000
    C26      C        0.23324    0.49982    0.02090    1.000
    C27      C        0.22585    0.46934    0.08176    1.000
    C28      C        0.35015    0.35537    0.10593    1.000
    C29      C        0.48102    0.26984    0.06672    1.000
    C30      C        0.49458    0.29731    0.00573    1.000
    C31      C        0.86338    0.77554    0.99330    1.000
    C32      C        0.09330    0.66080    0.93920    1.000
    C33      C        0.33590    0.20934    0.24906    1.000
    C34      C        0.36460    0.38798    0.21082    1.000
    C35      C        0.88447    0.07777    0.93449    1.000
    C36      C        0.62038    0.15804    0.91760    1.000
    C37      C        0.77236    0.08377    0.52051    1.000
    C38      C        0.75396    0.00018    0.47910    1.000
    C39      C        0.77695    0.03066    0.41824    1.000
    C40      C        0.81145    0.14463    0.39407    1.000
    C41      C        0.81758    0.23016    0.43328    1.000
    C42      C        0.79762    0.20269    0.49427    1.000
    C43      C        0.63222    0.72446    0.50670    1.000
    C44      C        0.69330    0.83920    0.56080    1.000
    C45      C        0.79430    0.29066    0.25094    1.000
    C46      C        0.96340    0.11202    0.28918    1.000
    C47      C        0.89673    0.42223    0.56551    1.000
    C48      C        0.69602    0.34196    0.58240    1.000
    N1       N        0.89962    0.38895    0.00361    1.000
    N2       N        0.05084    0.31419    0.96833    1.000
    N3       N        0.05471    0.23562    0.06456    1.000
    N4       N        0.91185    0.44591    0.87359    1.000
    N5       N        0.66085    0.67514    0.83156    1.000
    N6       N        0.67955    0.79213    0.80717    1.000
    N7       N        0.63895    0.68149    0.73761    1.000
    N8       N        0.39522    0.85544    0.90812    1.000
    N9       N        0.36832    0.79156    0.03300    1.000
    N10      N        0.19622    0.84390    0.02146    1.000
    N11      N        0.22248    0.92539    0.10425    1.000
    N12      N        0.29218    0.11105    0.49639    1.000
    N13      N        0.33336    0.18581    0.53167    1.000
    N14      N        0.35489    0.26438    0.43544    1.000
    N15      N        0.23135    0.05409    0.62641    1.000
    N16      N        0.16755    0.82486    0.66844    1.000
    N17      N        0.27885    0.70787    0.69283    1.000
    N18      N        0.05805    0.81851    0.76239    1.000
    N19      N        0.15878    0.64456    0.59188    1.000
    N20      N        0.19288    0.70844    0.46700    1.000
    N21      N        0.06158    0.65610    0.47854    1.000
    N22      N        0.25212    0.57461    0.39575    1.000
    N23      N        0.10038    0.61105    0.99639    1.000
    N24      N        0.94916    0.68581    0.03167    1.000
    N25      N        0.94529    0.76438    0.93544    1.000
    N26      N        0.08815    0.55409    0.12641    1.000
    N27      N        0.33915    0.32486    0.16844    1.000
    N28      N        0.32045    0.20787    0.19283    1.000
    N29      N        0.36105    0.31851    0.26239    1.000
    N30      N        0.60478    0.14456    0.09188    1.000
    N31      N        0.63168    0.20844    0.96700    1.000
    N32      N        0.80378    0.15610    0.97854    1.000
    N33      N        0.77752    0.07461    0.89575    1.000
    N34      N        0.70782    0.88895    0.50361    1.000
    N35      N        0.66664    0.81419    0.46833    1.000
    N36      N        0.64511    0.73562    0.56456    1.000
    N37      N        0.76865    0.94591    0.37359    1.000
    N38      N        0.83245    0.17514    0.33156    1.000
    N39      N        0.72115    0.29213    0.30717    1.000
    N40      N        0.94195    0.18149    0.23761    1.000
    N41      N        0.84122    0.35544    0.40812    1.000
    N42      N        0.80712    0.29156    0.53300    1.000
    N43      N        0.93842    0.34390    0.52146    1.000
    N44      N        0.74788    0.42539    0.60425    1.000
    O1       O        0.60471    0.55640    0.07598    1.000
    O2       O        0.88916    0.34838    0.86030    1.000
    O3       O        0.03321    0.48412    0.85126    1.000
    O4       O        0.39374    0.96059    0.92353    1.000
    O5       O        0.30394    0.84654    0.87338    1.000
    O6       O        0.23709    0.94360    0.42402    1.000
    O7       O        0.09784    0.15162    0.63970    1.000
    O8       O        0.36859    0.01588    0.64874    1.000
    O9       O        0.27786    0.53941    0.57647    1.000
    O10      O        0.02386    0.65346    0.62662    1.000
    O11      O        0.39529    0.44360    0.92402    1.000
    O12      O        0.11084    0.65162    0.13970    1.000
    O13      O        0.96679    0.51588    0.14874    1.000
    O14      O        0.60626    0.03941    0.07647    1.000
    O15      O        0.69606    0.15346    0.12662    1.000
    O16      O        0.76291    0.05640    0.57598    1.000
    O17      O        0.90216    0.84838    0.36030    1.000
    O18      O        0.63141    0.98412    0.35126    1.000
    O19      O        0.72214    0.46059    0.42353    1.000
    O20      O        0.97614    0.34654    0.37338    1.000
