# CIF file generated by openbabel 3.1.0, see https://openbabel.org
data_I
_chemical_name_common 'image0'
_cell_length_a 11.27
_cell_length_b 9.842
_cell_length_c 13.99
_cell_angle_alpha 90
_cell_angle_beta 93.25
_cell_angle_gamma 90
_space_group_name_H-M_alt 'P 1'
_space_group_name_Hall 'P 1'
loop_
    _symmetry_equiv_pos_as_xyz
    x,y,z
loop_
    _atom_site_label
    _atom_site_type_symbol
    _atom_site_fract_x
    _atom_site_fract_y
    _atom_site_fract_z
    _atom_site_occupancy
    Zn1      Zn       0.74472    0.25233    0.84055    1.000
    S1       S        0.77740    0.06500    0.67370    1.000
    C1       C        0.59850    0.30280    0.00700    1.000
    H1       H        0.62910    0.39050    0.01100    1.000
    C2       C        0.56710    0.09790    0.96120    1.000
    C3       C        0.56340    0.97400    0.91480    1.000
    H2       H        0.60260    0.95700    0.85930    1.000
    C4       C        0.49570    0.87750    0.95870    1.000
    C5       C        0.98070    0.31830    0.93920    1.000
    H3       H        0.97560    0.40950    0.92230    1.000
    C6       C        0.04280    0.12590    0.00450    1.000
    C7       C        0.10790    0.02940    0.05930    1.000
    H4       H        0.17480    0.05090    0.09840    1.000
    C8       C        0.93710    0.10050    0.95040    1.000
    C9       C        0.89630    0.10350    0.69400    1.000
    H5       H        0.90960    0.19170    0.66740    1.000
    H6       H        0.94800    0.03870    0.66630    1.000
    H7       H        0.91260    0.10620    0.76200    1.000
    C10      C        0.74160    0.06280    0.57370    1.000
    H8       H        0.75360    0.15110    0.54670    1.000
    H9       H        0.65900    0.03900    0.56590    1.000
    H10      H        0.78820    0.99710    0.54180    1.000
    N1       N        0.62570    0.21750    0.93630    1.000
    N2       N        0.89830    0.22040    0.90720    1.000
    N3       N        0.06450    0.26870    0.99470    1.000
    N4       N        0.47110    0.74230    0.93170    1.000
    O1       O        0.70020    0.15010    0.72700    1.000
    O2       O        0.76150    0.93100    0.71450    1.000
    Zn2      Zn       0.75528    0.75233    0.65945    1.000
    S2       S        0.72260    0.56500    0.82630    1.000
    C11      C        0.90150    0.80280    0.49300    1.000
    H11      H        0.87090    0.89050    0.48900    1.000
    C12      C        0.93290    0.59790    0.53880    1.000
    C13      C        0.93660    0.47400    0.58520    1.000
    H12      H        0.89740    0.45700    0.64070    1.000
    C14      C        0.00430    0.37750    0.54130    1.000
    C15      C        0.51930    0.81830    0.56080    1.000
    H13      H        0.52440    0.90950    0.57770    1.000
    C16      C        0.45720    0.62590    0.49550    1.000
    C17      C        0.39210    0.52940    0.44070    1.000
    H14      H        0.32520    0.55090    0.40160    1.000
    C18      C        0.56290    0.60050    0.54960    1.000
    C19      C        0.60370    0.60350    0.80600    1.000
    H15      H        0.59040    0.69170    0.83260    1.000
    H16      H        0.55200    0.53870    0.83370    1.000
    H17      H        0.58740    0.60620    0.73800    1.000
    C20      C        0.75840    0.56280    0.92630    1.000
    H18      H        0.74640    0.65110    0.95330    1.000
    H19      H        0.84100    0.53900    0.93410    1.000
    H20      H        0.71180    0.49710    0.95820    1.000
    N5       N        0.87430    0.71750    0.56370    1.000
    N6       N        0.60170    0.72040    0.59280    1.000
    N7       N        0.43550    0.76870    0.50530    1.000
    N8       N        0.02890    0.24230    0.56830    1.000
    O3       O        0.79980    0.65010    0.77300    1.000
    O4       O        0.73850    0.43100    0.78550    1.000
    Zn3      Zn       0.25528    0.74767    0.15945    1.000
    S3       S        0.22260    0.93500    0.32630    1.000
    C21      C        0.40150    0.69720    0.99300    1.000
    H21      H        0.37090    0.60950    0.98900    1.000
    C22      C        0.43290    0.90210    0.03880    1.000
    C23      C        0.43660    0.02600    0.08520    1.000
    H22      H        0.39740    0.04300    0.14070    1.000
    C24      C        0.50430    0.12250    0.04130    1.000
    C25      C        0.01930    0.68170    0.06080    1.000
    H23      H        0.02440    0.59050    0.07770    1.000
    C26      C        0.95720    0.87410    0.99550    1.000
    C27      C        0.89210    0.97060    0.94070    1.000
    H24      H        0.82520    0.94910    0.90160    1.000
    C28      C        0.06290    0.89950    0.04960    1.000
    C29      C        0.10370    0.89650    0.30600    1.000
    H25      H        0.09040    0.80830    0.33260    1.000
    H26      H        0.05200    0.96130    0.33370    1.000
    H27      H        0.08740    0.89380    0.23800    1.000
    C30      C        0.25840    0.93720    0.42630    1.000
    H28      H        0.24640    0.84890    0.45330    1.000
    H29      H        0.34100    0.96100    0.43410    1.000
    H30      H        0.21180    0.00290    0.45820    1.000
    N9       N        0.37430    0.78250    0.06370    1.000
    N10      N        0.10170    0.77960    0.09280    1.000
    N11      N        0.93550    0.73130    0.00530    1.000
    N12      N        0.52890    0.25770    0.06830    1.000
    O5       O        0.29980    0.84990    0.27300    1.000
    O6       O        0.23850    0.06900    0.28550    1.000
    Zn4      Zn       0.24472    0.24767    0.34055    1.000
    S4       S        0.27740    0.43500    0.17370    1.000
    C31      C        0.09850    0.19720    0.50700    1.000
    H31      H        0.12910    0.10950    0.51100    1.000
    C32      C        0.06710    0.40210    0.46120    1.000
    C33      C        0.06340    0.52600    0.41480    1.000
    H32      H        0.10260    0.54300    0.35930    1.000
    C34      C        0.99570    0.62250    0.45870    1.000
    C35      C        0.48070    0.18170    0.43920    1.000
    H33      H        0.47560    0.09050    0.42230    1.000
    C36      C        0.54280    0.37410    0.50450    1.000
    C37      C        0.60790    0.47060    0.55930    1.000
    H34      H        0.67480    0.44910    0.59840    1.000
    C38      C        0.43710    0.39950    0.45040    1.000
    C39      C        0.39630    0.39650    0.19400    1.000
    H35      H        0.40960    0.30830    0.16740    1.000
    H36      H        0.44800    0.46130    0.16630    1.000
    H37      H        0.41260    0.39380    0.26200    1.000
    C40      C        0.24160    0.43720    0.07370    1.000
    H38      H        0.25360    0.34890    0.04670    1.000
    H39      H        0.15900    0.46100    0.06590    1.000
    H40      H        0.28820    0.50290    0.04180    1.000
    N13      N        0.12570    0.28250    0.43630    1.000
    N14      N        0.39830    0.27960    0.40720    1.000
    N15      N        0.56450    0.23130    0.49470    1.000
    N16      N        0.97110    0.75770    0.43170    1.000
    O7       O        0.20020    0.34990    0.22700    1.000
    O8       O        0.26150    0.56900    0.21450    1.000
