# CIF file generated by openbabel 3.1.0, see https://openbabel.org
data_I
_chemical_name_common 'AVELUJ_clean'
_cell_length_a 13.7495
_cell_length_b 13.7495
_cell_length_c 25.533
_cell_angle_alpha 90
_cell_angle_beta 90
_cell_angle_gamma 90
_space_group_name_H-M_alt 'P 1'
_space_group_name_Hall 'P 1'
loop_
    _symmetry_equiv_pos_as_xyz
    x,y,z
loop_
    _atom_site_label
    _atom_site_type_symbol
    _atom_site_fract_x
    _atom_site_fract_y
    _atom_site_fract_z
    _atom_site_occupancy
    Ni1      Ni       0.09338    0.24906    0.02368    1.000
    Ni2      Ni       0.90662    0.75094    0.02368    1.000
    Ni3      Ni       0.74906    0.59338    0.47632    1.000
    Ni4      Ni       0.25094    0.40662    0.47632    1.000
    H1       H        0.20030    0.20730    0.94260    1.000
    H2       H        0.03950    0.25390    0.90020    1.000
    H3       H        0.13650    0.12790    0.86380    1.000
    H4       H        0.02630    0.13160    0.84810    1.000
    H5       H        0.06220    0.05640    0.89000    1.000
    H6       H        0.92160    0.36550    0.05410    1.000
    H7       H        0.85210    0.43520    0.12770    1.000
    H8       H        0.05410    0.30440    0.21440    1.000
    H9       H        0.12210    0.24260    0.13760    1.000
    H10      H        0.85030    0.46540    0.22040    1.000
    H11      H        0.16780    0.44340    0.04590    1.000
    H12      H        0.31050    0.52580    0.06440    1.000
    H13      H        0.44810    0.27010    0.05930    1.000
    H14      H        0.30400    0.19680    0.04010    1.000
    H15      H        0.54720    0.41430    0.07070    1.000
    H16      H        0.79970    0.79270    0.94260    1.000
    H17      H        0.96050    0.74610    0.90020    1.000
    H18      H        0.86350    0.87210    0.86380    1.000
    H19      H        0.97370    0.86840    0.84810    1.000
    H20      H        0.93780    0.94360    0.89000    1.000
    H21      H        0.07840    0.63450    0.05410    1.000
    H22      H        0.14790    0.56480    0.12770    1.000
    H23      H        0.94590    0.69560    0.21440    1.000
    H24      H        0.87790    0.75740    0.13760    1.000
    H25      H        0.14970    0.53460    0.22040    1.000
    H26      H        0.83220    0.55660    0.04590    1.000
    H27      H        0.68950    0.47420    0.06440    1.000
    H28      H        0.55190    0.72990    0.05930    1.000
    H29      H        0.69600    0.80320    0.04010    1.000
    H30      H        0.45280    0.58570    0.07070    1.000
    H31      H        0.70730    0.70030    0.55740    1.000
    H32      H        0.75390    0.53950    0.59980    1.000
    H33      H        0.62790    0.63650    0.63620    1.000
    H34      H        0.63160    0.52630    0.65190    1.000
    H35      H        0.55640    0.56220    0.61000    1.000
    H36      H        0.86550    0.42160    0.44590    1.000
    H37      H        0.93520    0.35210    0.37230    1.000
    H38      H        0.80440    0.55410    0.28560    1.000
    H39      H        0.74260    0.62210    0.36240    1.000
    H40      H        0.96540    0.35030    0.27960    1.000
    H41      H        0.94340    0.66780    0.45410    1.000
    H42      H        0.02580    0.81050    0.43560    1.000
    H43      H        0.77010    0.94810    0.44070    1.000
    H44      H        0.69680    0.80400    0.45990    1.000
    H45      H        0.91430    0.04720    0.42930    1.000
    H46      H        0.29270    0.29970    0.55740    1.000
    H47      H        0.24610    0.46050    0.59980    1.000
    H48      H        0.37210    0.36350    0.63620    1.000
    H49      H        0.36840    0.47370    0.65190    1.000
    H50      H        0.44360    0.43780    0.61000    1.000
    H51      H        0.13450    0.57840    0.44590    1.000
    H52      H        0.06480    0.64790    0.37230    1.000
    H53      H        0.19560    0.44590    0.28560    1.000
    H54      H        0.25740    0.37790    0.36240    1.000
    H55      H        0.03460    0.64970    0.27960    1.000
    H56      H        0.05660    0.33220    0.45410    1.000
    H57      H        0.97420    0.18950    0.43560    1.000
    H58      H        0.22990    0.05190    0.44070    1.000
    H59      H        0.30320    0.19600    0.45990    1.000
    H60      H        0.08570    0.95280    0.42930    1.000
    C1       C        0.96340    0.17220    0.95120    1.000
    C2       C        0.05300    0.19250    0.91820    1.000
    C3       C        0.07110    0.12090    0.87640    1.000
    C4       C        0.95000    0.35450    0.08660    1.000
    C5       C        0.90620    0.39510    0.13100    1.000
    C6       C        0.94380    0.37540    0.17910    1.000
    C7       C        0.02600    0.31840    0.18210    1.000
    C8       C        0.06710    0.28170    0.13550    1.000
    C9       C        0.89830    0.41880    0.22600    1.000
    C10      C        0.22500    0.40750    0.04830    1.000
    C11      C        0.31070    0.45880    0.05910    1.000
    C12      C        0.39760    0.40390    0.06150    1.000
    C13      C        0.39220    0.30780    0.05590    1.000
    C14      C        0.30450    0.26380    0.04510    1.000
    C15      C        0.49270    0.45380    0.06700    1.000
    C16      C        0.03660    0.82780    0.95120    1.000
    C17      C        0.94700    0.80750    0.91820    1.000
    C18      C        0.92890    0.87910    0.87640    1.000
    C19      C        0.05000    0.64550    0.08660    1.000
    C20      C        0.09380    0.60490    0.13100    1.000
    C21      C        0.05620    0.62460    0.17910    1.000
    C22      C        0.97400    0.68160    0.18210    1.000
    C23      C        0.93290    0.71830    0.13550    1.000
    C24      C        0.10170    0.58120    0.22600    1.000
    C25      C        0.77500    0.59250    0.04830    1.000
    C26      C        0.68930    0.54120    0.05910    1.000
    C27      C        0.60240    0.59610    0.06150    1.000
    C28      C        0.60780    0.69220    0.05590    1.000
    C29      C        0.69550    0.73620    0.04510    1.000
    C30      C        0.50730    0.54620    0.06700    1.000
    C31      C        0.67220    0.46340    0.54880    1.000
    C32      C        0.69250    0.55300    0.58180    1.000
    C33      C        0.62090    0.57110    0.62360    1.000
    C34      C        0.85450    0.45000    0.41340    1.000
    C35      C        0.89510    0.40620    0.36900    1.000
    C36      C        0.87540    0.44380    0.32090    1.000
    C37      C        0.81840    0.52600    0.31790    1.000
    C38      C        0.78170    0.56710    0.36450    1.000
    C39      C        0.91880    0.39830    0.27400    1.000
    C40      C        0.90750    0.72500    0.45170    1.000
    C41      C        0.95880    0.81070    0.44090    1.000
    C42      C        0.90390    0.89760    0.43850    1.000
    C43      C        0.80780    0.89220    0.44410    1.000
    C44      C        0.76380    0.80450    0.45490    1.000
    C45      C        0.95380    0.99270    0.43300    1.000
    C46      C        0.32780    0.53660    0.54880    1.000
    C47      C        0.30750    0.44700    0.58180    1.000
    C48      C        0.37910    0.42890    0.62360    1.000
    C49      C        0.14550    0.55000    0.41340    1.000
    C50      C        0.10490    0.59380    0.36900    1.000
    C51      C        0.12460    0.55620    0.32090    1.000
    C52      C        0.18160    0.47400    0.31790    1.000
    C53      C        0.21830    0.43290    0.36450    1.000
    C54      C        0.08120    0.60170    0.27400    1.000
    C55      C        0.09250    0.27500    0.45170    1.000
    C56      C        0.04120    0.18930    0.44090    1.000
    C57      C        0.09610    0.10240    0.43850    1.000
    C58      C        0.19220    0.10780    0.44410    1.000
    C59      C        0.23620    0.19550    0.45490    1.000
    C60      C        0.04620    0.00730    0.43300    1.000
    N1       N        0.13770    0.21240    0.95250    1.000
    N2       N        0.02960    0.30130    0.08880    1.000
    N3       N        0.21850    0.31260    0.04120    1.000
    N4       N        0.86230    0.78760    0.95250    1.000
    N5       N        0.97040    0.69870    0.08880    1.000
    N6       N        0.78150    0.68740    0.04120    1.000
    N7       N        0.71240    0.63770    0.54750    1.000
    N8       N        0.80130    0.52960    0.41120    1.000
    N9       N        0.81260    0.71850    0.45880    1.000
    N10      N        0.28760    0.36230    0.54750    1.000
    N11      N        0.19870    0.47040    0.41120    1.000
    N12      N        0.18740    0.28150    0.45880    1.000
    O1       O        0.96910    0.20180    0.99991    1.000
    O2       O        0.89070    0.13650    0.93226    1.000
    O3       O        0.03090    0.79820    0.99991    1.000
    O4       O        0.10930    0.86350    0.93226    1.000
    O5       O        0.70180    0.46910    0.50009    1.000
    O6       O        0.63650    0.39070    0.56774    1.000
    O7       O        0.29820    0.53090    0.50009    1.000
    O8       O        0.36350    0.60930    0.56774    1.000
    Ni5      Ni       0.24906    0.90662    0.97632    1.000
    Ni6      Ni       0.75094    0.09338    0.97632    1.000
    Ni7      Ni       0.59338    0.25094    0.52368    1.000
    Ni8      Ni       0.40662    0.74906    0.52368    1.000
    H61      H        0.20730    0.79970    0.05740    1.000
    H62      H        0.25390    0.96050    0.09980    1.000
    H63      H        0.12790    0.86350    0.13620    1.000
    H64      H        0.13160    0.97370    0.15190    1.000
    H65      H        0.05640    0.93780    0.11000    1.000
    H66      H        0.36550    0.07840    0.94590    1.000
    H67      H        0.43520    0.14790    0.87230    1.000
    H68      H        0.30440    0.94590    0.78560    1.000
    H69      H        0.24260    0.87790    0.86240    1.000
    H70      H        0.46540    0.14970    0.77960    1.000
    H71      H        0.44340    0.83220    0.95410    1.000
    H72      H        0.52580    0.68950    0.93560    1.000
    H73      H        0.27010    0.55190    0.94070    1.000
    H74      H        0.19680    0.69600    0.95990    1.000
    H75      H        0.41430    0.45280    0.92930    1.000
    H76      H        0.79270    0.20030    0.05740    1.000
    H77      H        0.74610    0.03950    0.09980    1.000
    H78      H        0.87210    0.13650    0.13620    1.000
    H79      H        0.86840    0.02630    0.15190    1.000
    H80      H        0.94360    0.06220    0.11000    1.000
    H81      H        0.63450    0.92160    0.94590    1.000
    H82      H        0.56480    0.85210    0.87230    1.000
    H83      H        0.69560    0.05410    0.78560    1.000
    H84      H        0.75740    0.12210    0.86240    1.000
    H85      H        0.53460    0.85030    0.77960    1.000
    H86      H        0.55660    0.16780    0.95410    1.000
    H87      H        0.47420    0.31050    0.93560    1.000
    H88      H        0.72990    0.44810    0.94070    1.000
    H89      H        0.80320    0.30400    0.95990    1.000
    H90      H        0.58570    0.54720    0.92930    1.000
    H91      H        0.70030    0.29270    0.44260    1.000
    H92      H        0.53950    0.24610    0.40020    1.000
    H93      H        0.63650    0.37210    0.36380    1.000
    H94      H        0.52630    0.36840    0.34810    1.000
    H95      H        0.56220    0.44360    0.39000    1.000
    H96      H        0.42160    0.13450    0.55410    1.000
    H97      H        0.35210    0.06480    0.62770    1.000
    H98      H        0.55410    0.19560    0.71440    1.000
    H99      H        0.62210    0.25740    0.63760    1.000
    H100     H        0.35030    0.03460    0.72040    1.000
    H101     H        0.66780    0.05660    0.54590    1.000
    H102     H        0.81050    0.97420    0.56440    1.000
    H103     H        0.94810    0.22990    0.55930    1.000
    H104     H        0.80400    0.30320    0.54010    1.000
    H105     H        0.04720    0.08570    0.57070    1.000
    H106     H        0.29970    0.70730    0.44260    1.000
    H107     H        0.46050    0.75390    0.40020    1.000
    H108     H        0.36350    0.62790    0.36380    1.000
    H109     H        0.47370    0.63160    0.34810    1.000
    H110     H        0.43780    0.55640    0.39000    1.000
    H111     H        0.57840    0.86550    0.55410    1.000
    H112     H        0.64790    0.93520    0.62770    1.000
    H113     H        0.44590    0.80440    0.71440    1.000
    H114     H        0.37790    0.74260    0.63760    1.000
    H115     H        0.64970    0.96540    0.72040    1.000
    H116     H        0.33220    0.94340    0.54590    1.000
    H117     H        0.18950    0.02580    0.56440    1.000
    H118     H        0.05190    0.77010    0.55930    1.000
    H119     H        0.19600    0.69680    0.54010    1.000
    H120     H        0.95280    0.91430    0.57070    1.000
    C61      C        0.17220    0.03660    0.04880    1.000
    C62      C        0.19250    0.94700    0.08180    1.000
    C63      C        0.12090    0.92890    0.12360    1.000
    C64      C        0.35450    0.05000    0.91340    1.000
    C65      C        0.39510    0.09380    0.86900    1.000
    C66      C        0.37540    0.05620    0.82090    1.000
    C67      C        0.31840    0.97400    0.81790    1.000
    C68      C        0.28170    0.93290    0.86450    1.000
    C69      C        0.41880    0.10170    0.77400    1.000
    C70      C        0.40750    0.77500    0.95170    1.000
    C71      C        0.45880    0.68930    0.94090    1.000
    C72      C        0.40390    0.60240    0.93850    1.000
    C73      C        0.30780    0.60780    0.94410    1.000
    C74      C        0.26380    0.69550    0.95490    1.000
    C75      C        0.45380    0.50730    0.93300    1.000
    C76      C        0.82780    0.96340    0.04880    1.000
    C77      C        0.80750    0.05300    0.08180    1.000
    C78      C        0.87910    0.07110    0.12360    1.000
    C79      C        0.64550    0.95000    0.91340    1.000
    C80      C        0.60490    0.90620    0.86900    1.000
    C81      C        0.62460    0.94380    0.82090    1.000
    C82      C        0.68160    0.02600    0.81790    1.000
    C83      C        0.71830    0.06710    0.86450    1.000
    C84      C        0.58120    0.89830    0.77400    1.000
    C85      C        0.59250    0.22500    0.95170    1.000
    C86      C        0.54120    0.31070    0.94090    1.000
    C87      C        0.59610    0.39760    0.93850    1.000
    C88      C        0.69220    0.39220    0.94410    1.000
    C89      C        0.73620    0.30450    0.95490    1.000
    C90      C        0.54620    0.49270    0.93300    1.000
    C91      C        0.46340    0.32780    0.45120    1.000
    C92      C        0.55300    0.30750    0.41820    1.000
    C93      C        0.57110    0.37910    0.37640    1.000
    C94      C        0.45000    0.14550    0.58660    1.000
    C95      C        0.40620    0.10490    0.63100    1.000
    C96      C        0.44380    0.12460    0.67910    1.000
    C97      C        0.52600    0.18160    0.68210    1.000
    C98      C        0.56710    0.21830    0.63550    1.000
    C99      C        0.39830    0.08120    0.72600    1.000
    C100     C        0.72500    0.09250    0.54830    1.000
    C101     C        0.81070    0.04120    0.55910    1.000
    C102     C        0.89760    0.09610    0.56150    1.000
    C103     C        0.89220    0.19220    0.55590    1.000
    C104     C        0.80450    0.23620    0.54510    1.000
    C105     C        0.99270    0.04620    0.56700    1.000
    C106     C        0.53660    0.67220    0.45120    1.000
    C107     C        0.44700    0.69250    0.41820    1.000
    C108     C        0.42890    0.62090    0.37640    1.000
    C109     C        0.55000    0.85450    0.58660    1.000
    C110     C        0.59380    0.89510    0.63100    1.000
    C111     C        0.55620    0.87540    0.67910    1.000
    C112     C        0.47400    0.81840    0.68210    1.000
    C113     C        0.43290    0.78170    0.63550    1.000
    C114     C        0.60170    0.91880    0.72600    1.000
    C115     C        0.27500    0.90750    0.54830    1.000
    C116     C        0.18930    0.95880    0.55910    1.000
    C117     C        0.10240    0.90390    0.56150    1.000
    C118     C        0.10780    0.80780    0.55590    1.000
    C119     C        0.19550    0.76380    0.54510    1.000
    C120     C        0.00730    0.95380    0.56700    1.000
    N13      N        0.21240    0.86230    0.04750    1.000
    N14      N        0.30130    0.97040    0.91120    1.000
    N15      N        0.31260    0.78150    0.95880    1.000
    N16      N        0.78760    0.13770    0.04750    1.000
    N17      N        0.69870    0.02960    0.91120    1.000
    N18      N        0.68740    0.21850    0.95880    1.000
    N19      N        0.63770    0.28760    0.45250    1.000
    N20      N        0.52960    0.19870    0.58880    1.000
    N21      N        0.71850    0.18740    0.54120    1.000
    N22      N        0.36230    0.71240    0.45250    1.000
    N23      N        0.47040    0.80130    0.58880    1.000
    N24      N        0.28150    0.81260    0.54120    1.000
    O9       O        0.20180    0.03090    0.00009    1.000
    O10      O        0.13650    0.10930    0.06774    1.000
    O11      O        0.79820    0.96910    0.00009    1.000
    O12      O        0.86350    0.89070    0.06774    1.000
    O13      O        0.46910    0.29820    0.49991    1.000
    O14      O        0.39070    0.36350    0.43226    1.000
    O15      O        0.53090    0.70180    0.49991    1.000
    O16      O        0.60930    0.63650    0.43226    1.000
