# CIF file generated by openbabel 3.1.0, see https://openbabel.org
data_I
_chemical_name_common 'image0'
_cell_length_a 18.711
_cell_length_b 17.937
_cell_length_c 19.217
_cell_angle_alpha 90
_cell_angle_beta 117.06
_cell_angle_gamma 90
_space_group_name_H-M_alt 'P 1'
_space_group_name_Hall 'P 1'
loop_
    _symmetry_equiv_pos_as_xyz
    x,y,z
loop_
    _atom_site_label
    _atom_site_type_symbol
    _atom_site_fract_x
    _atom_site_fract_y
    _atom_site_fract_z
    _atom_site_occupancy
    Co1      Co       0.26170    0.16298    0.99882    1.000
    N1       N        0.31240    0.16840    0.12470    1.000
    N2       N        0.21560    0.16800    0.87360    1.000
    C1       C        0.23890    0.98970    0.00430    1.000
    H1       H        0.29400    0.98170    0.02760    1.000
    N3       N        0.32660    0.39570    0.02310    1.000
    C2       C        0.27720    0.33650    0.99140    1.000
    H2       H        0.22190    0.34060    0.96200    1.000
    N4       N        0.16170    0.13460    0.74900    1.000
    N5       N        0.37240    0.14370    0.25190    1.000
    N6       N        0.31590    0.27330    0.00680    1.000
    N7       N        0.18290    0.93410    0.98110    1.000
    C3       C        0.11450    0.09530    0.67810    1.000
    C4       C        0.40880    0.10310    0.32380    1.000
    N8       N        0.20490    0.05640    0.98940    1.000
    C5       C        0.33750    0.11520    0.17810    1.000
    H3       H        0.33190    0.06450    0.16660    1.000
    C6       C        0.25880    0.62280    0.00690    1.000
    C7       C        0.31660    0.59190    0.07670    1.000
    H4       H        0.34150    0.62260    0.12020    1.000
    C8       C        0.23850    0.70380    0.00120    1.000
    C9       C        0.30300    0.47320    0.01780    1.000
    N9       N        0.15400    0.28630    0.49060    1.000
    C10      C        0.22250    0.57490    0.94300    1.000
    H5       H        0.18260    0.59330    0.89610    1.000
    C11      C        0.27320    0.83060    0.04480    1.000
    H6       H        0.31030    0.86420    0.07920    1.000
    C12      C        0.39630    0.29300    0.05200    1.000
    H7       H        0.43900    0.25960    0.07170    1.000
    C13      C        0.40300    0.36690    0.06290    1.000
    H8       H        0.45000    0.39350    0.09160    1.000
    C14      C        0.14410    0.80450    0.93960    1.000
    H9       H        0.09420    0.82040    0.90170    1.000
    C15      C        0.16260    0.72980    0.94660    1.000
    H10      H        0.12420    0.69570    0.91470    1.000
    C16      C        0.33830    0.51650    0.08350    1.000
    H11      H        0.37540    0.49650    0.13100    1.000
    C17      C        0.29150    0.75620    0.05000    1.000
    H12      H        0.34150    0.74040    0.08780    1.000
    N10      N        0.36980    0.11270    0.00640    1.000
    C18      C        0.19890    0.85600    0.98800    1.000
    C19      C        0.12290    0.04210    0.95560    1.000
    H13      H        0.08310    0.07850    0.93960    1.000
    C20      C        0.24450    0.50040    0.94790    1.000
    H14      H        0.22020    0.46940    0.90460    1.000
    N11      N        0.03990    0.22430    0.44750    1.000
    C21      C        0.09970    0.24880    0.43180    1.000
    H15      H        0.10180    0.24010    0.38500    1.000
    C22      C        0.12730    0.28790    0.54710    1.000
    H16      H        0.15350    0.31130    0.59540    1.000
    C23      C        0.05680    0.24980    0.52090    1.000
    H17      H        0.02620    0.24260    0.54730    1.000
    C24      C        0.37630    0.03740    0.33140    1.000
    H18      H        0.32940    0.02000    0.29010    1.000
    C25      C        0.96770    0.18620    0.39280    1.000
    C26      C        0.96590    0.14980    0.32920    1.000
    H19      H        0.01270    0.14450    0.32400    1.000
    C27      C        0.24050    0.21530    0.83270    1.000
    H20      H        0.27490    0.25550    0.85440    1.000
    C28      C        0.58630    0.09340    0.10460    1.000
    C29      C        0.48020    0.02200    0.46300    1.000
    C30      C        0.41260    0.99550    0.40050    1.000
    H21      H        0.39080    0.94990    0.40400    1.000
    N12      N        0.50080    0.09510    0.05030    1.000
    C31      C        0.44050    0.11020    0.06850    1.000
    H22      H        0.44810    0.11800    0.11920    1.000
    C32      C        0.60820    0.06060    0.17690    1.000
    H23      H        0.57100    0.03540    0.18770    1.000
    C33      C        0.36940    0.21990    0.24430    1.000
    H24      H        0.38950    0.25470    0.28460    1.000
    C34      C        0.64000    0.12450    0.08410    1.000
    H25      H        0.62420    0.14180    0.03360    1.000
    C35      C        0.74380    0.10570    0.21570    1.000
    C36      C        0.33200    0.23450    0.16770    1.000
    H26      H        0.32060    0.28210    0.14610    1.000
    C37      C        0.68910    0.06700    0.23340    1.000
    H27      H        0.70610    0.04560    0.28240    1.000
    C38      C        0.20840    0.19550    0.75720    1.000
    H28      H        0.21640    0.21870    0.71810    1.000
    C39      C        0.16750    0.12020    0.82010    1.000
    H29      H        0.14100    0.08120    0.83050    1.000
    C40      C        0.82450    0.12580    0.28040    1.000
    C41      C        0.02460    0.02030    0.53700    1.000
    C42      C        0.14830    0.08020    0.62810    1.000
    H30      H        0.20040    0.09500    0.64060    1.000
    C43      C        0.82890    0.15920    0.34760    1.000
    H31      H        0.78330    0.16130    0.35520    1.000
    C44      C        0.89360    0.12070    0.27220    1.000
    H32      H        0.89220    0.09760    0.22830    1.000
    C45      C        0.90010    0.18920    0.40330    1.000
    H33      H        0.90200    0.21150    0.44780    1.000
    C46      C        0.10940    0.96900    0.94960    1.000
    H34      H        0.05950    0.94570    0.92800    1.000
    C47      C        0.46590    0.08600    0.97000    1.000
    H35      H        0.49160    0.07500    0.93970    1.000
    C48      C        0.38670    0.09660    0.94510    1.000
    H36      H        0.34820    0.09340    0.89320    1.000
    C49      C        0.71970    0.12980    0.14100    1.000
    H37      H        0.75750    0.15030    0.12770    1.000
    C50      C        0.10150    0.04200    0.55860    1.000
    H38      H        0.12400    0.03090    0.52550    1.000
    C51      C        0.47520    0.12940    0.38490    1.000
    H39      H        0.49730    0.17460    0.38080    1.000
    C52      C        0.51060    0.08910    0.45380    1.000
    H40      H        0.55640    0.10800    0.49540    1.000
    C53      C        0.04000    0.05800    0.66660    1.000
    H41      H        0.02250    0.06050    0.70490    1.000
    C54      C        0.99450    0.01900    0.59550    1.000
    H42      H        0.94770    0.99390    0.58640    1.000
    C55      C        0.03800    0.08800    0.65100    1.000
    C56      C        0.99470    0.05300    0.58120    1.000
    H43      H        0.01280    0.10640    0.67930    1.000
    H44      H        0.93930    0.05250    0.56230    1.000
    Co2      Co       0.73830    0.66298    0.50118    1.000
    N13      N        0.68760    0.66840    0.37530    1.000
    N14      N        0.78440    0.66800    0.62640    1.000
    C57      C        0.76110    0.48970    0.49570    1.000
    H45      H        0.70600    0.48170    0.47240    1.000
    N15      N        0.67340    0.89570    0.47690    1.000
    C58      C        0.72280    0.83650    0.50860    1.000
    H46      H        0.77810    0.84060    0.53800    1.000
    N16      N        0.83830    0.63460    0.75100    1.000
    N17      N        0.62760    0.64370    0.24810    1.000
    N18      N        0.68410    0.77330    0.49320    1.000
    N19      N        0.81710    0.43410    0.51890    1.000
    C59      C        0.88550    0.59530    0.82190    1.000
    C60      C        0.59120    0.60310    0.17620    1.000
    N20      N        0.79510    0.55640    0.51060    1.000
    C61      C        0.66250    0.61520    0.32190    1.000
    H47      H        0.66810    0.56450    0.33340    1.000
    C62      C        0.74120    0.12280    0.49310    1.000
    C63      C        0.68340    0.09190    0.42330    1.000
    H48      H        0.65850    0.12260    0.37980    1.000
    C64      C        0.76150    0.20380    0.49880    1.000
    C65      C        0.69700    0.97320    0.48220    1.000
    N21      N        0.84600    0.78630    0.00940    1.000
    C66      C        0.77750    0.07490    0.55700    1.000
    H49      H        0.81740    0.09330    0.60390    1.000
    C67      C        0.72680    0.33060    0.45520    1.000
    H50      H        0.68970    0.36420    0.42080    1.000
    C68      C        0.60370    0.79300    0.44800    1.000
    H51      H        0.56100    0.75960    0.42830    1.000
    C69      C        0.59700    0.86690    0.43710    1.000
    H52      H        0.55000    0.89350    0.40840    1.000
    C70      C        0.85590    0.30450    0.56040    1.000
    H53      H        0.90580    0.32040    0.59830    1.000
    C71      C        0.83740    0.22980    0.55340    1.000
    H54      H        0.87580    0.19570    0.58530    1.000
    C72      C        0.66170    0.01650    0.41650    1.000
    H55      H        0.62460    0.99650    0.36900    1.000
    C73      C        0.70850    0.25620    0.45000    1.000
    H56      H        0.65850    0.24040    0.41220    1.000
    N22      N        0.63020    0.61270    0.49360    1.000
    C74      C        0.80110    0.35600    0.51200    1.000
    C75      C        0.87710    0.54210    0.54440    1.000
    H57      H        0.91690    0.57850    0.56040    1.000
    C76      C        0.75550    0.00040    0.55210    1.000
    H58      H        0.77980    0.96940    0.59540    1.000
    N23      N        0.96010    0.72430    0.05250    1.000
    C77      C        0.90030    0.74880    0.06820    1.000
    H59      H        0.89820    0.74010    0.11500    1.000
    C78      C        0.87270    0.78790    0.95290    1.000
    H60      H        0.84650    0.81130    0.90460    1.000
    C79      C        0.94320    0.74980    0.97910    1.000
    H61      H        0.97380    0.74260    0.95270    1.000
    C80      C        0.62370    0.53740    0.16860    1.000
    H62      H        0.67060    0.52000    0.20990    1.000
    C81      C        0.03230    0.68620    0.10720    1.000
    C82      C        0.03410    0.64980    0.17080    1.000
    H63      H        0.98730    0.64450    0.17600    1.000
    C83      C        0.75950    0.71530    0.66730    1.000
    H64      H        0.72510    0.75550    0.64560    1.000
    C84      C        0.41370    0.59340    0.39540    1.000
    C85      C        0.51980    0.52200    0.03700    1.000
    C86      C        0.58740    0.49550    0.09950    1.000
    H65      H        0.60920    0.44990    0.09600    1.000
    N24      N        0.49920    0.59510    0.44970    1.000
    C87      C        0.55950    0.61020    0.43150    1.000
    H66      H        0.55190    0.61800    0.38080    1.000
    C88      C        0.39180    0.56060    0.32310    1.000
    H67      H        0.42900    0.53540    0.31230    1.000
    C89      C        0.63060    0.71990    0.25570    1.000
    H68      H        0.61050    0.75470    0.21540    1.000
    C90      C        0.36000    0.62450    0.41590    1.000
    H69      H        0.37580    0.64180    0.46640    1.000
    C91      C        0.25620    0.60570    0.28430    1.000
    C92      C        0.66800    0.73450    0.33230    1.000
    H70      H        0.67940    0.78210    0.35390    1.000
    C93      C        0.31090    0.56700    0.26660    1.000
    H71      H        0.29390    0.54560    0.21760    1.000
    C94      C        0.79160    0.69550    0.74280    1.000
    H72      H        0.78360    0.71870    0.78190    1.000
    C95      C        0.83250    0.62020    0.67990    1.000
    H73      H        0.85900    0.58120    0.66950    1.000
    C96      C        0.17550    0.62580    0.21960    1.000
    C97      C        0.97540    0.52030    0.96300    1.000
    C98      C        0.85170    0.58020    0.87190    1.000
    H74      H        0.79960    0.59500    0.85940    1.000
    C99      C        0.17110    0.65920    0.15240    1.000
    H75      H        0.21670    0.66130    0.14480    1.000
    C100     C        0.10640    0.62070    0.22780    1.000
    H76      H        0.10780    0.59760    0.27170    1.000
    C101     C        0.09990    0.68920    0.09670    1.000
    H77      H        0.09800    0.71150    0.05220    1.000
    C102     C        0.89060    0.46900    0.55040    1.000
    H78      H        0.94050    0.44570    0.57200    1.000
    C103     C        0.53410    0.58600    0.53000    1.000
    H79      H        0.50840    0.57500    0.56030    1.000
    C104     C        0.61330    0.59660    0.55490    1.000
    H80      H        0.65180    0.59340    0.60680    1.000
    C105     C        0.28030    0.62980    0.35900    1.000
    H81      H        0.24250    0.65030    0.37230    1.000
    C106     C        0.89850    0.54200    0.94140    1.000
    H82      H        0.87600    0.53090    0.97450    1.000
    C107     C        0.52480    0.62940    0.11510    1.000
    H83      H        0.50270    0.67460    0.11920    1.000
    C108     C        0.48940    0.58910    0.04620    1.000
    H84      H        0.44360    0.60800    0.00460    1.000
    C109     C        0.96000    0.55800    0.83340    1.000
    H85      H        0.97750    0.56050    0.79510    1.000
    C110     C        0.00550    0.51900    0.90450    1.000
    H86      H        0.05230    0.49390    0.91360    1.000
    C111     C        0.96200    0.58800    0.84900    1.000
    C112     C        0.00530    0.55300    0.91880    1.000
    H87      H        0.98720    0.60640    0.82070    1.000
    H88      H        0.06070    0.55250    0.93770    1.000
    Co3      Co       0.73830    0.83702    0.00118    1.000
    N25      N        0.68760    0.83160    0.87530    1.000
    N26      N        0.78440    0.83200    0.12640    1.000
    C113     C        0.76110    0.01030    0.99570    1.000
    H89      H        0.70600    0.01830    0.97240    1.000
    N27      N        0.67340    0.60430    0.97690    1.000
    C114     C        0.72280    0.66350    0.00860    1.000
    H90      H        0.77810    0.65940    0.03800    1.000
    N28      N        0.83830    0.86540    0.25100    1.000
    N29      N        0.62760    0.85630    0.74810    1.000
    N30      N        0.68410    0.72670    0.99320    1.000
    N31      N        0.81710    0.06590    0.01890    1.000
    C115     C        0.88550    0.90470    0.32190    1.000
    C116     C        0.59120    0.89690    0.67620    1.000
    N32      N        0.79510    0.94360    0.01060    1.000
    C117     C        0.66250    0.88480    0.82190    1.000
    H91      H        0.66810    0.93550    0.83340    1.000
    C118     C        0.74120    0.37720    0.99310    1.000
    C119     C        0.68340    0.40810    0.92330    1.000
    H92      H        0.65850    0.37740    0.87980    1.000
    C120     C        0.76150    0.29620    0.99880    1.000
    C121     C        0.69700    0.52680    0.98220    1.000
    N33      N        0.84600    0.71370    0.50940    1.000
    C122     C        0.77750    0.42510    0.05700    1.000
    H93      H        0.81740    0.40670    0.10390    1.000
    C123     C        0.72680    0.16940    0.95520    1.000
    H94      H        0.68970    0.13580    0.92080    1.000
    C124     C        0.60370    0.70700    0.94800    1.000
    H95      H        0.56100    0.74040    0.92830    1.000
    C125     C        0.59700    0.63310    0.93710    1.000
    H96      H        0.55000    0.60650    0.90840    1.000
    C126     C        0.85590    0.19550    0.06040    1.000
    H97      H        0.90580    0.17960    0.09830    1.000
    C127     C        0.83740    0.27020    0.05340    1.000
    H98      H        0.87580    0.30430    0.08530    1.000
    C128     C        0.66170    0.48350    0.91650    1.000
    H99      H        0.62460    0.50350    0.86900    1.000
    C129     C        0.70850    0.24380    0.95000    1.000
    H100     H        0.65850    0.25960    0.91220    1.000
    N34      N        0.63020    0.88730    0.99360    1.000
    C130     C        0.80110    0.14400    0.01200    1.000
    C131     C        0.87710    0.95790    0.04440    1.000
    H101     H        0.91690    0.92150    0.06040    1.000
    C132     C        0.75550    0.49960    0.05210    1.000
    H102     H        0.77980    0.53060    0.09540    1.000
    N35      N        0.96010    0.77570    0.55250    1.000
    C133     C        0.90030    0.75120    0.56820    1.000
    H103     H        0.89820    0.75990    0.61500    1.000
    C134     C        0.87270    0.71210    0.45290    1.000
    H104     H        0.84650    0.68870    0.40460    1.000
    C135     C        0.94320    0.75020    0.47910    1.000
    H105     H        0.97380    0.75740    0.45270    1.000
    C136     C        0.62370    0.96260    0.66860    1.000
    H106     H        0.67060    0.98000    0.70990    1.000
    C137     C        0.03230    0.81380    0.60720    1.000
    C138     C        0.03410    0.85020    0.67080    1.000
    H107     H        0.98730    0.85550    0.67600    1.000
    C139     C        0.75950    0.78470    0.16730    1.000
    H108     H        0.72510    0.74450    0.14560    1.000
    C140     C        0.41370    0.90660    0.89540    1.000
    C141     C        0.51980    0.97800    0.53700    1.000
    C142     C        0.58740    0.00450    0.59950    1.000
    H109     H        0.60920    0.05010    0.59600    1.000
    N36      N        0.49920    0.90490    0.94970    1.000
    C143     C        0.55950    0.88980    0.93150    1.000
    H110     H        0.55190    0.88200    0.88080    1.000
    C144     C        0.39180    0.93940    0.82310    1.000
    H111     H        0.42900    0.96460    0.81230    1.000
    C145     C        0.63060    0.78010    0.75570    1.000
    H112     H        0.61050    0.74530    0.71540    1.000
    C146     C        0.36000    0.87550    0.91590    1.000
    H113     H        0.37580    0.85820    0.96640    1.000
    C147     C        0.25620    0.89430    0.78430    1.000
    C148     C        0.66800    0.76550    0.83230    1.000
    H114     H        0.67940    0.71790    0.85390    1.000
    C149     C        0.31090    0.93300    0.76660    1.000
    H115     H        0.29390    0.95440    0.71760    1.000
    C150     C        0.79160    0.80450    0.24280    1.000
    H116     H        0.78360    0.78130    0.28190    1.000
    C151     C        0.83250    0.87980    0.17990    1.000
    H117     H        0.85900    0.91880    0.16950    1.000
    C152     C        0.17550    0.87420    0.71960    1.000
    C153     C        0.97540    0.97970    0.46300    1.000
    C154     C        0.85170    0.91980    0.37190    1.000
    H118     H        0.79960    0.90500    0.35940    1.000
    C155     C        0.17110    0.84080    0.65240    1.000
    H119     H        0.21670    0.83870    0.64480    1.000
    C156     C        0.10640    0.87930    0.72780    1.000
    H120     H        0.10780    0.90240    0.77170    1.000
    C157     C        0.09990    0.81080    0.59670    1.000
    H121     H        0.09800    0.78850    0.55220    1.000
    C158     C        0.89060    0.03100    0.05040    1.000
    H122     H        0.94050    0.05430    0.07200    1.000
    C159     C        0.53410    0.91400    0.03000    1.000
    H123     H        0.50840    0.92500    0.06030    1.000
    C160     C        0.61330    0.90340    0.05490    1.000
    H124     H        0.65180    0.90660    0.10680    1.000
    C161     C        0.28030    0.87020    0.85900    1.000
    H125     H        0.24250    0.84970    0.87230    1.000
    C162     C        0.89850    0.95800    0.44140    1.000
    H126     H        0.87600    0.96910    0.47450    1.000
    C163     C        0.52480    0.87060    0.61510    1.000
    H127     H        0.50270    0.82540    0.61920    1.000
    C164     C        0.48940    0.91090    0.54620    1.000
    H128     H        0.44360    0.89200    0.50460    1.000
    C165     C        0.96000    0.94200    0.33340    1.000
    H129     H        0.97750    0.93950    0.29510    1.000
    C166     C        0.00550    0.98100    0.40450    1.000
    H130     H        0.05230    0.00610    0.41360    1.000
    C167     C        0.96200    0.91200    0.34900    1.000
    C168     C        0.00530    0.94700    0.41880    1.000
    H131     H        0.98720    0.89360    0.32070    1.000
    H132     H        0.06070    0.94750    0.43770    1.000
    Co4      Co       0.26170    0.33702    0.49882    1.000
    N37      N        0.31240    0.33160    0.62470    1.000
    N38      N        0.21560    0.33200    0.37360    1.000
    C169     C        0.23890    0.51030    0.50430    1.000
    H133     H        0.29400    0.51830    0.52760    1.000
    N39      N        0.32660    0.10430    0.52310    1.000
    C170     C        0.27720    0.16350    0.49140    1.000
    H134     H        0.22190    0.15940    0.46200    1.000
    N40      N        0.16170    0.36540    0.24900    1.000
    N41      N        0.37240    0.35630    0.75190    1.000
    N42      N        0.31590    0.22670    0.50680    1.000
    N43      N        0.18290    0.56590    0.48110    1.000
    C171     C        0.11450    0.40470    0.17810    1.000
    C172     C        0.40880    0.39690    0.82380    1.000
    N44      N        0.20490    0.44360    0.48940    1.000
    C173     C        0.33750    0.38480    0.67810    1.000
    H135     H        0.33190    0.43550    0.66660    1.000
    C174     C        0.25880    0.87720    0.50690    1.000
    C175     C        0.31660    0.90810    0.57670    1.000
    H136     H        0.34150    0.87740    0.62020    1.000
    C176     C        0.23850    0.79620    0.50120    1.000
    C177     C        0.30300    0.02680    0.51780    1.000
    N45      N        0.15400    0.21370    0.99060    1.000
    C178     C        0.22250    0.92510    0.44300    1.000
    H137     H        0.18260    0.90670    0.39610    1.000
    C179     C        0.27320    0.66940    0.54480    1.000
    H138     H        0.31030    0.63580    0.57920    1.000
    C180     C        0.39630    0.20700    0.55200    1.000
    H139     H        0.43900    0.24040    0.57170    1.000
    C181     C        0.40300    0.13310    0.56290    1.000
    H140     H        0.45000    0.10650    0.59160    1.000
    C182     C        0.14410    0.69550    0.43960    1.000
    H141     H        0.09420    0.67960    0.40170    1.000
    C183     C        0.16260    0.77020    0.44660    1.000
    H142     H        0.12420    0.80430    0.41470    1.000
    C184     C        0.33830    0.98350    0.58350    1.000
    H143     H        0.37540    0.00350    0.63100    1.000
    C185     C        0.29150    0.74380    0.55000    1.000
    H144     H        0.34150    0.75960    0.58780    1.000
    N46      N        0.36980    0.38730    0.50640    1.000
    C186     C        0.19890    0.64400    0.48800    1.000
    C187     C        0.12290    0.45790    0.45560    1.000
    H145     H        0.08310    0.42150    0.43960    1.000
    C188     C        0.24450    0.99960    0.44790    1.000
    H146     H        0.22020    0.03060    0.40460    1.000
    N47      N        0.03990    0.27570    0.94750    1.000
    C189     C        0.09970    0.25120    0.93180    1.000
    H147     H        0.10180    0.25990    0.88500    1.000
    C190     C        0.12730    0.21210    0.04710    1.000
    H148     H        0.15350    0.18870    0.09540    1.000
    C191     C        0.05680    0.25020    0.02090    1.000
    H149     H        0.02620    0.25740    0.04730    1.000
    C192     C        0.37630    0.46260    0.83140    1.000
    H150     H        0.32940    0.48000    0.79010    1.000
    C193     C        0.96770    0.31380    0.89280    1.000
    C194     C        0.96590    0.35020    0.82920    1.000
    H151     H        0.01270    0.35550    0.82400    1.000
    C195     C        0.24050    0.28470    0.33270    1.000
    H152     H        0.27490    0.24450    0.35440    1.000
    C196     C        0.58630    0.40660    0.60460    1.000
    C197     C        0.48020    0.47800    0.96300    1.000
    C198     C        0.41260    0.50450    0.90050    1.000
    H153     H        0.39080    0.55010    0.90400    1.000
    N48      N        0.50080    0.40490    0.55030    1.000
    C199     C        0.44050    0.38980    0.56850    1.000
    H154     H        0.44810    0.38200    0.61920    1.000
    C200     C        0.60820    0.43940    0.67690    1.000
    H155     H        0.57100    0.46460    0.68770    1.000
    C201     C        0.36940    0.28010    0.74430    1.000
    H156     H        0.38950    0.24530    0.78460    1.000
    C202     C        0.64000    0.37550    0.58410    1.000
    H157     H        0.62420    0.35820    0.53360    1.000
    C203     C        0.74380    0.39430    0.71570    1.000
    C204     C        0.33200    0.26550    0.66770    1.000
    H158     H        0.32060    0.21790    0.64610    1.000
    C205     C        0.68910    0.43300    0.73340    1.000
    H159     H        0.70610    0.45440    0.78240    1.000
    C206     C        0.20840    0.30450    0.25720    1.000
    H160     H        0.21640    0.28130    0.21810    1.000
    C207     C        0.16750    0.37980    0.32010    1.000
    H161     H        0.14100    0.41880    0.33050    1.000
    C208     C        0.82450    0.37420    0.78040    1.000
    C209     C        0.02460    0.47970    0.03700    1.000
    C210     C        0.14830    0.41980    0.12810    1.000
    H162     H        0.20040    0.40500    0.14060    1.000
    C211     C        0.82890    0.34080    0.84760    1.000
    H163     H        0.78330    0.33870    0.85520    1.000
    C212     C        0.89360    0.37930    0.77220    1.000
    H164     H        0.89220    0.40240    0.72830    1.000
    C213     C        0.90010    0.31080    0.90330    1.000
    H165     H        0.90200    0.28850    0.94780    1.000
    C214     C        0.10940    0.53100    0.44960    1.000
    H166     H        0.05950    0.55430    0.42800    1.000
    C215     C        0.46590    0.41400    0.47000    1.000
    H167     H        0.49160    0.42500    0.43970    1.000
    C216     C        0.38670    0.40340    0.44510    1.000
    H168     H        0.34820    0.40660    0.39320    1.000
    C217     C        0.71970    0.37020    0.64100    1.000
    H169     H        0.75750    0.34970    0.62770    1.000
    C218     C        0.10150    0.45800    0.05860    1.000
    H170     H        0.12400    0.46910    0.02550    1.000
    C219     C        0.47520    0.37060    0.88490    1.000
    H171     H        0.49730    0.32540    0.88080    1.000
    C220     C        0.51060    0.41090    0.95380    1.000
    H172     H        0.55640    0.39200    0.99540    1.000
    C221     C        0.04000    0.44200    0.16660    1.000
    H173     H        0.02250    0.43950    0.20490    1.000
    C222     C        0.99450    0.48100    0.09550    1.000
    H174     H        0.94770    0.50610    0.08640    1.000
    C223     C        0.03800    0.41200    0.15100    1.000
    C224     C        0.99470    0.44700    0.08120    1.000
    H175     H        0.01280    0.39360    0.17930    1.000
    H176     H        0.93930    0.44750    0.06230    1.000
