# CIF file generated by openbabel 3.1.0, see https://openbabel.org
data_I
_chemical_name_common 'image0'
_cell_length_a 12.6245
_cell_length_b 12.6245
_cell_length_c 25.5002
_cell_angle_alpha 90
_cell_angle_beta 90
_cell_angle_gamma 90
_space_group_name_H-M_alt 'P 1'
_space_group_name_Hall 'P 1'
loop_
    _symmetry_equiv_pos_as_xyz
    x,y,z
loop_
    _atom_site_label
    _atom_site_type_symbol
    _atom_site_fract_x
    _atom_site_fract_y
    _atom_site_fract_z
    _atom_site_occupancy
    Zn1      Zn       0.54008    0.06462    0.56264    1.000
    C1       C        0.60520    0.06830    0.66110    1.000
    C2       C        0.70980    0.06960    0.79980    1.000
    H1       H        0.68200    0.06880    0.83360    1.000
    C3       C        0.68200    0.06990    0.70700    1.000
    C4       C        0.64170    0.07040    0.75730    1.000
    H2       H        0.56880    0.07130    0.76260    1.000
    C5       C        0.49700    0.30950    0.57830    1.000
    C6       C        0.54220    0.26610    0.50150    1.000
    H3       H        0.56370    0.22660    0.47260    1.000
    N1       N        0.47230    0.30330    0.62980    1.000
    H4       H        0.45520    0.35960    0.64680    1.000
    H5       H        0.47370    0.24310    0.64550    1.000
    N2       N        0.52410    0.22350    0.54906    1.000
    N3       N        0.52660    0.36880    0.49989    1.000
    N4       N        0.49710    0.39780    0.55101    1.000
    O1       O        0.51070    0.08640    0.66810    1.000
    O2       O        0.64490    0.04700    0.61700    1.000
    Zn2      Zn       0.95992    0.43538    0.56264    1.000
    C7       C        0.89480    0.43170    0.66110    1.000
    C8       C        0.79020    0.43040    0.79980    1.000
    H6       H        0.81800    0.43120    0.83360    1.000
    C9       C        0.81800    0.43010    0.70700    1.000
    C10      C        0.85830    0.42960    0.75730    1.000
    H7       H        0.93120    0.42870    0.76260    1.000
    C11      C        0.00300    0.19050    0.57830    1.000
    C12      C        0.95780    0.23390    0.50150    1.000
    H8       H        0.93630    0.27340    0.47260    1.000
    N5       N        0.02770    0.19670    0.62980    1.000
    H9       H        0.04480    0.14040    0.64680    1.000
    H10      H        0.02630    0.25690    0.64550    1.000
    N6       N        0.97590    0.27650    0.54906    1.000
    N7       N        0.97340    0.13120    0.49989    1.000
    N8       N        0.00290    0.10220    0.55101    1.000
    O3       O        0.98930    0.41360    0.66810    1.000
    O4       O        0.85510    0.45300    0.61700    1.000
    Zn3      Zn       0.43538    0.54008    0.56264    1.000
    C13      C        0.43170    0.60520    0.66110    1.000
    C14      C        0.43040    0.70980    0.79980    1.000
    H11      H        0.43120    0.68200    0.83360    1.000
    C15      C        0.43010    0.68200    0.70700    1.000
    C16      C        0.42960    0.64170    0.75730    1.000
    H12      H        0.42870    0.56880    0.76260    1.000
    C17      C        0.19050    0.49700    0.57830    1.000
    C18      C        0.23390    0.54220    0.50150    1.000
    H13      H        0.27340    0.56370    0.47260    1.000
    N9       N        0.19670    0.47230    0.62980    1.000
    H14      H        0.14040    0.45520    0.64680    1.000
    H15      H        0.25690    0.47370    0.64550    1.000
    N10      N        0.27650    0.52410    0.54906    1.000
    N11      N        0.13120    0.52660    0.49989    1.000
    N12      N        0.10220    0.49710    0.55101    1.000
    O5       O        0.41360    0.51070    0.66810    1.000
    O6       O        0.45300    0.64490    0.61700    1.000
    Zn4      Zn       0.06462    0.95992    0.56264    1.000
    C19      C        0.06830    0.89480    0.66110    1.000
    C20      C        0.06960    0.79020    0.79980    1.000
    H16      H        0.06880    0.81800    0.83360    1.000
    C21      C        0.06990    0.81800    0.70700    1.000
    C22      C        0.07040    0.85830    0.75730    1.000
    H17      H        0.07130    0.93120    0.76260    1.000
    C23      C        0.30950    0.00300    0.57830    1.000
    C24      C        0.26610    0.95780    0.50150    1.000
    H18      H        0.22660    0.93630    0.47260    1.000
    N13      N        0.30330    0.02770    0.62980    1.000
    H19      H        0.35960    0.04480    0.64680    1.000
    H20      H        0.24310    0.02630    0.64550    1.000
    N14      N        0.22350    0.97590    0.54906    1.000
    N15      N        0.36880    0.97340    0.49989    1.000
    N16      N        0.39780    0.00290    0.55101    1.000
    O7       O        0.08640    0.98930    0.66810    1.000
    O8       O        0.04700    0.85510    0.61700    1.000
    Zn5      Zn       0.95992    0.06462    0.93736    1.000
    C25      C        0.89480    0.06830    0.83890    1.000
    C26      C        0.79020    0.06960    0.70020    1.000
    H21      H        0.81800    0.06880    0.66640    1.000
    C27      C        0.81800    0.06990    0.79300    1.000
    C28      C        0.85830    0.07040    0.74270    1.000
    H22      H        0.93120    0.07130    0.73740    1.000
    C29      C        0.00300    0.30950    0.92170    1.000
    C30      C        0.95780    0.26610    0.99850    1.000
    H23      H        0.93630    0.22660    0.02740    1.000
    N17      N        0.02770    0.30330    0.87020    1.000
    H24      H        0.04480    0.35960    0.85320    1.000
    H25      H        0.02630    0.24310    0.85450    1.000
    N18      N        0.97590    0.22350    0.95094    1.000
    N19      N        0.97340    0.36880    0.00011    1.000
    N20      N        0.00290    0.39780    0.94899    1.000
    O9       O        0.98930    0.08640    0.83190    1.000
    O10      O        0.85510    0.04700    0.88300    1.000
    Zn6      Zn       0.54008    0.43538    0.93736    1.000
    C31      C        0.60520    0.43170    0.83890    1.000
    C32      C        0.70980    0.43040    0.70020    1.000
    H26      H        0.68200    0.43120    0.66640    1.000
    C33      C        0.68200    0.43010    0.79300    1.000
    C34      C        0.64170    0.42960    0.74270    1.000
    H27      H        0.56880    0.42870    0.73740    1.000
    C35      C        0.49700    0.19050    0.92170    1.000
    C36      C        0.54220    0.23390    0.99850    1.000
    H28      H        0.56370    0.27340    0.02740    1.000
    N21      N        0.47230    0.19670    0.87020    1.000
    H29      H        0.45520    0.14040    0.85320    1.000
    H30      H        0.47370    0.25690    0.85450    1.000
    N22      N        0.52410    0.27650    0.95094    1.000
    N23      N        0.52660    0.13120    0.00011    1.000
    N24      N        0.49710    0.10220    0.94899    1.000
    O11      O        0.51070    0.41360    0.83190    1.000
    O12      O        0.64490    0.45300    0.88300    1.000
    Zn7      Zn       0.06462    0.54008    0.93736    1.000
    C37      C        0.06830    0.60520    0.83890    1.000
    C38      C        0.06960    0.70980    0.70020    1.000
    H31      H        0.06880    0.68200    0.66640    1.000
    C39      C        0.06990    0.68200    0.79300    1.000
    C40      C        0.07040    0.64170    0.74270    1.000
    H32      H        0.07130    0.56880    0.73740    1.000
    C41      C        0.30950    0.49700    0.92170    1.000
    C42      C        0.26610    0.54220    0.99850    1.000
    H33      H        0.22660    0.56370    0.02740    1.000
    N25      N        0.30330    0.47230    0.87020    1.000
    H34      H        0.35960    0.45520    0.85320    1.000
    H35      H        0.24310    0.47370    0.85450    1.000
    N26      N        0.22350    0.52410    0.95094    1.000
    N27      N        0.36880    0.52660    0.00011    1.000
    N28      N        0.39780    0.49710    0.94899    1.000
    O13      O        0.08640    0.51070    0.83190    1.000
    O14      O        0.04700    0.64490    0.88300    1.000
    Zn8      Zn       0.43538    0.95992    0.93736    1.000
    C43      C        0.43170    0.89480    0.83890    1.000
    C44      C        0.43040    0.79020    0.70020    1.000
    H36      H        0.43120    0.81800    0.66640    1.000
    C45      C        0.43010    0.81800    0.79300    1.000
    C46      C        0.42960    0.85830    0.74270    1.000
    H37      H        0.42870    0.93120    0.73740    1.000
    C47      C        0.19050    0.00300    0.92170    1.000
    C48      C        0.23390    0.95780    0.99850    1.000
    H38      H        0.27340    0.93630    0.02740    1.000
    N29      N        0.19670    0.02770    0.87020    1.000
    H39      H        0.14040    0.04480    0.85320    1.000
    H40      H        0.25690    0.02630    0.85450    1.000
    N30      N        0.27650    0.97590    0.95094    1.000
    N31      N        0.13120    0.97340    0.00011    1.000
    N32      N        0.10220    0.00290    0.94899    1.000
    O15      O        0.41360    0.98930    0.83190    1.000
    O16      O        0.45300    0.85510    0.88300    1.000
    Zn9      Zn       0.45992    0.93538    0.43736    1.000
    C49      C        0.39480    0.93170    0.33890    1.000
    C50      C        0.29020    0.93040    0.20020    1.000
    H41      H        0.31800    0.93120    0.16640    1.000
    C51      C        0.31800    0.93010    0.29300    1.000
    C52      C        0.35830    0.92960    0.24270    1.000
    H42      H        0.43120    0.92870    0.23740    1.000
    C53      C        0.50300    0.69050    0.42170    1.000
    C54      C        0.45780    0.73390    0.49850    1.000
    H43      H        0.43630    0.77340    0.52740    1.000
    N33      N        0.52770    0.69670    0.37020    1.000
    H44      H        0.54480    0.64040    0.35320    1.000
    H45      H        0.52630    0.75690    0.35450    1.000
    N34      N        0.47590    0.77650    0.45094    1.000
    N35      N        0.47340    0.63120    0.50011    1.000
    N36      N        0.50290    0.60220    0.44899    1.000
    O17      O        0.48930    0.91360    0.33190    1.000
    O18      O        0.35510    0.95300    0.38300    1.000
    Zn10     Zn       0.04008    0.56462    0.43736    1.000
    C55      C        0.10520    0.56830    0.33890    1.000
    C56      C        0.20980    0.56960    0.20020    1.000
    H46      H        0.18200    0.56880    0.16640    1.000
    C57      C        0.18200    0.56990    0.29300    1.000
    C58      C        0.14170    0.57040    0.24270    1.000
    H47      H        0.06880    0.57130    0.23740    1.000
    C59      C        0.99700    0.80950    0.42170    1.000
    C60      C        0.04220    0.76610    0.49850    1.000
    H48      H        0.06370    0.72660    0.52740    1.000
    N37      N        0.97230    0.80330    0.37020    1.000
    H49      H        0.95520    0.85960    0.35320    1.000
    H50      H        0.97370    0.74310    0.35450    1.000
    N38      N        0.02410    0.72350    0.45094    1.000
    N39      N        0.02660    0.86880    0.50011    1.000
    N40      N        0.99710    0.89780    0.44899    1.000
    O19      O        0.01070    0.58640    0.33190    1.000
    O20      O        0.14490    0.54700    0.38300    1.000
    Zn11     Zn       0.56462    0.45992    0.43736    1.000
    C61      C        0.56830    0.39480    0.33890    1.000
    C62      C        0.56960    0.29020    0.20020    1.000
    H51      H        0.56880    0.31800    0.16640    1.000
    C63      C        0.56990    0.31800    0.29300    1.000
    C64      C        0.57040    0.35830    0.24270    1.000
    H52      H        0.57130    0.43120    0.23740    1.000
    C65      C        0.80950    0.50300    0.42170    1.000
    C66      C        0.76610    0.45780    0.49850    1.000
    H53      H        0.72660    0.43630    0.52740    1.000
    N41      N        0.80330    0.52770    0.37020    1.000
    H54      H        0.85960    0.54480    0.35320    1.000
    H55      H        0.74310    0.52630    0.35450    1.000
    N42      N        0.72350    0.47590    0.45094    1.000
    N43      N        0.86880    0.47340    0.50011    1.000
    N44      N        0.89780    0.50290    0.44899    1.000
    O21      O        0.58640    0.48930    0.33190    1.000
    O22      O        0.54700    0.35510    0.38300    1.000
    Zn12     Zn       0.93538    0.04008    0.43736    1.000
    C67      C        0.93170    0.10520    0.33890    1.000
    C68      C        0.93040    0.20980    0.20020    1.000
    H56      H        0.93120    0.18200    0.16640    1.000
    C69      C        0.93010    0.18200    0.29300    1.000
    C70      C        0.92960    0.14170    0.24270    1.000
    H57      H        0.92870    0.06880    0.23740    1.000
    C71      C        0.69050    0.99700    0.42170    1.000
    C72      C        0.73390    0.04220    0.49850    1.000
    H58      H        0.77340    0.06370    0.52740    1.000
    N45      N        0.69670    0.97230    0.37020    1.000
    H59      H        0.64040    0.95520    0.35320    1.000
    H60      H        0.75690    0.97370    0.35450    1.000
    N46      N        0.77650    0.02410    0.45094    1.000
    N47      N        0.63120    0.02660    0.50011    1.000
    N48      N        0.60220    0.99710    0.44899    1.000
    O23      O        0.91360    0.01070    0.33190    1.000
    O24      O        0.95300    0.14490    0.38300    1.000
    Zn13     Zn       0.04008    0.93538    0.06264    1.000
    C73      C        0.10520    0.93170    0.16110    1.000
    C74      C        0.20980    0.93040    0.29980    1.000
    H61      H        0.18200    0.93120    0.33360    1.000
    C75      C        0.18200    0.93010    0.20700    1.000
    C76      C        0.14170    0.92960    0.25730    1.000
    H62      H        0.06880    0.92870    0.26260    1.000
    C77      C        0.99700    0.69050    0.07830    1.000
    C78      C        0.04220    0.73390    0.00150    1.000
    H63      H        0.06370    0.77340    0.97260    1.000
    N49      N        0.97230    0.69670    0.12980    1.000
    H64      H        0.95520    0.64040    0.14680    1.000
    H65      H        0.97370    0.75690    0.14550    1.000
    N50      N        0.02410    0.77650    0.04906    1.000
    N51      N        0.02660    0.63120    0.99989    1.000
    N52      N        0.99710    0.60220    0.05101    1.000
    O25      O        0.01070    0.91360    0.16810    1.000
    O26      O        0.14490    0.95300    0.11700    1.000
    Zn14     Zn       0.45992    0.56462    0.06264    1.000
    C79      C        0.39480    0.56830    0.16110    1.000
    C80      C        0.29020    0.56960    0.29980    1.000
    H66      H        0.31800    0.56880    0.33360    1.000
    C81      C        0.31800    0.56990    0.20700    1.000
    C82      C        0.35830    0.57040    0.25730    1.000
    H67      H        0.43120    0.57130    0.26260    1.000
    C83      C        0.50300    0.80950    0.07830    1.000
    C84      C        0.45780    0.76610    0.00150    1.000
    H68      H        0.43630    0.72660    0.97260    1.000
    N53      N        0.52770    0.80330    0.12980    1.000
    H69      H        0.54480    0.85960    0.14680    1.000
    H70      H        0.52630    0.74310    0.14550    1.000
    N54      N        0.47590    0.72350    0.04906    1.000
    N55      N        0.47340    0.86880    0.99989    1.000
    N56      N        0.50290    0.89780    0.05101    1.000
    O27      O        0.48930    0.58640    0.16810    1.000
    O28      O        0.35510    0.54700    0.11700    1.000
    Zn15     Zn       0.93538    0.45992    0.06264    1.000
    C85      C        0.93170    0.39480    0.16110    1.000
    C86      C        0.93040    0.29020    0.29980    1.000
    H71      H        0.93120    0.31800    0.33360    1.000
    C87      C        0.93010    0.31800    0.20700    1.000
    C88      C        0.92960    0.35830    0.25730    1.000
    H72      H        0.92870    0.43120    0.26260    1.000
    C89      C        0.69050    0.50300    0.07830    1.000
    C90      C        0.73390    0.45780    0.00150    1.000
    H73      H        0.77340    0.43630    0.97260    1.000
    N57      N        0.69670    0.52770    0.12980    1.000
    H74      H        0.64040    0.54480    0.14680    1.000
    H75      H        0.75690    0.52630    0.14550    1.000
    N58      N        0.77650    0.47590    0.04906    1.000
    N59      N        0.63120    0.47340    0.99989    1.000
    N60      N        0.60220    0.50290    0.05101    1.000
    O29      O        0.91360    0.48930    0.16810    1.000
    O30      O        0.95300    0.35510    0.11700    1.000
    Zn16     Zn       0.56462    0.04008    0.06264    1.000
    C91      C        0.56830    0.10520    0.16110    1.000
    C92      C        0.56960    0.20980    0.29980    1.000
    H76      H        0.56880    0.18200    0.33360    1.000
    C93      C        0.56990    0.18200    0.20700    1.000
    C94      C        0.57040    0.14170    0.25730    1.000
    H77      H        0.57130    0.06880    0.26260    1.000
    C95      C        0.80950    0.99700    0.07830    1.000
    C96      C        0.76610    0.04220    0.00150    1.000
    H78      H        0.72660    0.06370    0.97260    1.000
    N61      N        0.80330    0.97230    0.12980    1.000
    H79      H        0.85960    0.95520    0.14680    1.000
    H80      H        0.74310    0.97370    0.14550    1.000
    N62      N        0.72350    0.02410    0.04906    1.000
    N63      N        0.86880    0.02660    0.99989    1.000
    N64      N        0.89780    0.99710    0.05101    1.000
    O31      O        0.58640    0.01070    0.16810    1.000
    O32      O        0.54700    0.14490    0.11700    1.000
