# CIF file generated by openbabel 3.1.0, see https://openbabel.org
data_I
_chemical_name_common 'VAPFUP_clean'
_cell_length_a 7.072
_cell_length_b 10.385
_cell_length_c 12.842
_cell_angle_alpha 100.695
_cell_angle_beta 91.181
_cell_angle_gamma 94.614
_space_group_name_H-M_alt 'P 1'
_space_group_name_Hall 'P 1'
loop_
    _symmetry_equiv_pos_as_xyz
    x,y,z
loop_
    _atom_site_label
    _atom_site_type_symbol
    _atom_site_fract_x
    _atom_site_fract_y
    _atom_site_fract_z
    _atom_site_occupancy
    Sr1      Sr       0.24190    0.46690    0.39521    1.000
    Sr2      Sr       0.75810    0.53310    0.60479    1.000
    H1       H        0.81970    0.28580    0.02670    1.000
    H2       H        0.80420    0.42440    0.18880    1.000
    H3       H        0.65170    0.11270    0.32190    1.000
    H4       H        0.56150    0.89320    0.28170    1.000
    H5       H        0.58970    0.56480    0.06690    1.000
    H6       H        0.69710    0.68850    0.94510    1.000
    H7       H        0.18030    0.71420    0.97330    1.000
    H8       H        0.19580    0.57560    0.81120    1.000
    H9       H        0.34830    0.88730    0.67810    1.000
    H10      H        0.43850    0.10680    0.71830    1.000
    H11      H        0.41030    0.43520    0.93310    1.000
    H12      H        0.30290    0.31150    0.05490    1.000
    Pt1      Pt       0.78321    0.98519    0.93954    1.000
    Pt2      Pt       0.21679    0.01481    0.06046    1.000
    C1       C        0.78600    0.25000    0.08760    1.000
    C2       C        0.77800    0.33270    0.18440    1.000
    C3       C        0.72700    0.27910    0.27190    1.000
    C4       C        0.68500    0.14720    0.26090    1.000
    C5       C        0.69300    0.06230    0.16220    1.000
    C6       C        0.66300    0.92280    0.14020    1.000
    C7       C        0.59000    0.85070    0.21260    1.000
    C8       C        0.55600    0.71450    0.18460    1.000
    C9       C        0.60300    0.65670    0.08510    1.000
    C10      C        0.67100    0.73060    0.01420    1.000
    C11      C        0.73300    0.36920    0.38230    1.000
    C12      C        0.45900    0.63300    0.26310    1.000
    C13      C        0.85800    0.11460    0.85040    1.000
    C14      C        0.79500    0.84360    0.81550    1.000
    C15      C        0.21400    0.75000    0.91240    1.000
    C16      C        0.22200    0.66730    0.81560    1.000
    C17      C        0.27300    0.72090    0.72810    1.000
    C18      C        0.31500    0.85280    0.73910    1.000
    C19      C        0.30700    0.93770    0.83780    1.000
    C20      C        0.33700    0.07720    0.85980    1.000
    C21      C        0.41000    0.14930    0.78740    1.000
    C22      C        0.44400    0.28550    0.81540    1.000
    C23      C        0.39700    0.34330    0.91490    1.000
    C24      C        0.32900    0.26940    0.98580    1.000
    C25      C        0.26700    0.63080    0.61770    1.000
    C26      C        0.54100    0.36700    0.73690    1.000
    C27      C        0.14200    0.88540    0.14960    1.000
    C28      C        0.20500    0.15640    0.18450    1.000
    N1       N        0.74800    0.11230    0.07490    1.000
    N2       N        0.69660    0.86160    0.03900    1.000
    N3       N        0.90600    0.18630    0.80010    1.000
    N4       N        0.80000    0.76040    0.74410    1.000
    N5       N        0.25200    0.88770    0.92510    1.000
    N6       N        0.30340    0.13840    0.96100    1.000
    N7       N        0.09400    0.81370    0.19990    1.000
    N8       N        0.20000    0.23960    0.25590    1.000
    O1       O        0.58290    0.40740    0.41440    1.000
    O2       O        0.88980    0.39070    0.42690    1.000
    O3       O        0.44960    0.68560    0.35660    1.000
    O4       O        0.39260    0.51980    0.21890    1.000
    O5       O        0.41710    0.59260    0.58560    1.000
    O6       O        0.11020    0.60930    0.57310    1.000
    O7       O        0.55040    0.31440    0.64340    1.000
    O8       O        0.60740    0.48020    0.78110    1.000
