# CIF file generated by openbabel 3.1.0, see https://openbabel.org
data_I
_chemical_name_common 'FUNCEX_clean'
_cell_length_a 11.6151
_cell_length_b 15.648
_cell_length_c 18.163
_cell_angle_alpha 90
_cell_angle_beta 93.202
_cell_angle_gamma 90
_space_group_name_H-M_alt 'P 1'
_space_group_name_Hall 'P 1'
loop_
    _symmetry_equiv_pos_as_xyz
    x,y,z
loop_
    _atom_site_label
    _atom_site_type_symbol
    _atom_site_fract_x
    _atom_site_fract_y
    _atom_site_fract_z
    _atom_site_occupancy
    Zn1      Zn       0.99238    0.00000    0.91893    1.000
    Zn2      Zn       0.00762    0.00000    0.08107    1.000
    H1       H        0.74240    0.79540    0.88880    1.000
    H2       H        0.75800    0.79800    0.11000    1.000
    H3       H        0.64880    0.67170    0.10980    1.000
    H4       H        0.62100    0.67180    0.89310    1.000
    H5       H        0.25760    0.79540    0.11120    1.000
    H6       H        0.24200    0.79800    0.89000    1.000
    H7       H        0.35120    0.67170    0.89020    1.000
    H8       H        0.37900    0.67180    0.10690    1.000
    H9       H        0.25760    0.20460    0.11120    1.000
    H10      H        0.24200    0.20200    0.89000    1.000
    H11      H        0.35120    0.32830    0.89020    1.000
    H12      H        0.37900    0.32820    0.10690    1.000
    H13      H        0.74240    0.20460    0.88880    1.000
    H14      H        0.75800    0.20200    0.11000    1.000
    H15      H        0.64880    0.32830    0.10980    1.000
    H16      H        0.62100    0.32820    0.89310    1.000
    H17      H        0.15980    0.00000    0.80260    1.000
    H18      H        0.82700    0.00000    0.78990    1.000
    H19      H        0.16710    0.00000    0.67890    1.000
    H20      H        0.82350    0.00000    0.66340    1.000
    H21      H        0.84020    0.00000    0.19740    1.000
    H22      H        0.17300    0.00000    0.21010    1.000
    H23      H        0.83290    0.00000    0.32110    1.000
    H24      H        0.17650    0.00000    0.33660    1.000
    C1       C        0.76480    0.80590    0.00000    1.000
    C2       C        0.84850    0.88440    0.00100    1.000
    C3       C        0.56260    0.57770    0.99950    1.000
    C4       C        0.62660    0.66070    0.99990    1.000
    C5       C        0.72410    0.77150    0.93350    1.000
    C6       C        0.73430    0.77190    0.06570    1.000
    C7       C        0.66640    0.69670    0.06550    1.000
    C8       C        0.65110    0.69590    0.93680    1.000
    C9       C        0.23520    0.80590    0.00000    1.000
    C10      C        0.15150    0.88440    0.99900    1.000
    C11      C        0.43740    0.57770    0.00050    1.000
    C12      C        0.37340    0.66070    0.00010    1.000
    C13      C        0.27590    0.77150    0.06650    1.000
    C14      C        0.26570    0.77190    0.93430    1.000
    C15      C        0.33360    0.69670    0.93450    1.000
    C16      C        0.34890    0.69590    0.06320    1.000
    C17      C        0.23520    0.19410    0.00000    1.000
    C18      C        0.15150    0.11560    0.99900    1.000
    C19      C        0.43740    0.42230    0.00050    1.000
    C20      C        0.37340    0.33930    0.00010    1.000
    C21      C        0.27590    0.22850    0.06650    1.000
    C22      C        0.26570    0.22810    0.93430    1.000
    C23      C        0.33360    0.30330    0.93450    1.000
    C24      C        0.34890    0.30410    0.06320    1.000
    C25      C        0.76480    0.19410    0.00000    1.000
    C26      C        0.84850    0.11560    0.00100    1.000
    C27      C        0.56260    0.42230    0.99950    1.000
    C28      C        0.62660    0.33930    0.99990    1.000
    C29      C        0.72410    0.22850    0.93350    1.000
    C30      C        0.73430    0.22810    0.06570    1.000
    C31      C        0.66640    0.30330    0.06550    1.000
    C32      C        0.65110    0.30410    0.93680    1.000
    C33      C        0.09020    0.00000    0.77470    1.000
    C34      C        0.89690    0.00000    0.76730    1.000
    C35      C        0.09540    0.00000    0.69920    1.000
    C36      C        0.99721    0.00000    0.65290    1.000
    C37      C        0.89410    0.00000    0.69020    1.000
    C38      C        0.99872    0.00000    0.56990    1.000
    C39      C        0.90980    0.00000    0.22530    1.000
    C40      C        0.10310    0.00000    0.23270    1.000
    C41      C        0.90460    0.00000    0.30080    1.000
    C42      C        0.00279    0.00000    0.34710    1.000
    C43      C        0.10590    0.00000    0.30980    1.000
    C44      C        0.00128    0.00000    0.43010    1.000
    C45      C        0.61560    0.50000    0.00290    1.000
    C46      C        0.38440    0.50000    0.99710    1.000
    Br1      Br       0.78067    0.50000    0.99938    1.000
    Br2      Br       0.21933    0.50000    0.00062    1.000
    N1       N        0.99434    0.00000    0.81070    1.000
    N2       N        0.09980    0.00000    0.53870    1.000
    N3       N        0.89690    0.00000    0.53280    1.000
    N4       N        0.00566    0.00000    0.18930    1.000
    N5       N        0.90020    0.00000    0.46130    1.000
    N6       N        0.10310    0.00000    0.46720    1.000
    O1       O        0.87030    0.90890    0.93950    1.000
    O2       O        0.88380    0.90910    0.06260    1.000
    O3       O        0.12970    0.90890    0.06050    1.000
    O4       O        0.11620    0.90910    0.93740    1.000
    O5       O        0.12970    0.09110    0.06050    1.000
    O6       O        0.11620    0.09090    0.93740    1.000
    O7       O        0.87030    0.09110    0.93950    1.000
    O8       O        0.88380    0.09090    0.06260    1.000
