# CIF file generated by openbabel 3.1.0, see https://openbabel.org
data_I
_chemical_name_common 'image0'
_cell_length_a 20.5266
_cell_length_b 9.1925
_cell_length_c 6.8763
_cell_angle_alpha 90
_cell_angle_beta 113.084
_cell_angle_gamma 90
_space_group_name_H-M_alt 'P 1'
_space_group_name_Hall 'P 1'
loop_
    _symmetry_equiv_pos_as_xyz
    x,y,z
loop_
    _atom_site_label
    _atom_site_type_symbol
    _atom_site_fract_x
    _atom_site_fract_y
    _atom_site_fract_z
    _atom_site_occupancy
    Fe1      Fe       0.99590    0.00530    0.96120    1.000
    O1       O        0.06170    0.12670    0.63570    1.000
    O2       O        0.07900    0.09730    0.96980    1.000
    O3       O        0.41060    0.36510    0.93940    1.000
    O4       O        0.42780    0.33560    0.27350    1.000
    C1       C        0.17630    0.18440    0.89500    1.000
    C2       C        0.20250    0.21540    0.74460    1.000
    C3       C        0.27100    0.26220    0.80420    1.000
    C4       C        0.31320    0.27800    0.01420    1.000
    C5       C        0.28700    0.24700    0.16460    1.000
    C6       C        0.21850    0.20020    0.10500    1.000
    C7       C        0.10210    0.13370    0.83040    1.000
    C8       C        0.38740    0.32870    0.07880    1.000
    H1       H        0.17230    0.20410    0.59440    1.000
    H2       H        0.28970    0.28430    0.69660    1.000
    H3       H        0.31730    0.25830    0.31490    1.000
    H4       H        0.19980    0.17800    0.21260    1.000
    O5       O        0.99680    0.90310    0.70300    1.000
    Fe2      Fe       0.49590    0.50530    0.96120    1.000
    O6       O        0.56170    0.62670    0.63570    1.000
    O7       O        0.57900    0.59730    0.96980    1.000
    O8       O        0.91060    0.86510    0.93940    1.000
    O9       O        0.92780    0.83560    0.27350    1.000
    C9       C        0.67630    0.68440    0.89500    1.000
    C10      C        0.70250    0.71540    0.74460    1.000
    C11      C        0.77100    0.76220    0.80420    1.000
    C12      C        0.81320    0.77800    0.01420    1.000
    C13      C        0.78700    0.74700    0.16460    1.000
    C14      C        0.71850    0.70020    0.10500    1.000
    C15      C        0.60210    0.63370    0.83040    1.000
    C16      C        0.88740    0.82870    0.07880    1.000
    H5       H        0.67230    0.70410    0.59440    1.000
    H6       H        0.78970    0.78430    0.69660    1.000
    H7       H        0.81730    0.75830    0.31490    1.000
    H8       H        0.69980    0.67800    0.21260    1.000
    O10      O        0.49680    0.40310    0.70300    1.000
    Fe3      Fe       0.99590    0.99470    0.46120    1.000
    O11      O        0.06170    0.87330    0.13570    1.000
    O12      O        0.07900    0.90270    0.46980    1.000
    O13      O        0.41060    0.63490    0.43940    1.000
    O14      O        0.42780    0.66440    0.77350    1.000
    C17      C        0.17630    0.81560    0.39500    1.000
    C18      C        0.20250    0.78460    0.24460    1.000
    C19      C        0.27100    0.73780    0.30420    1.000
    C20      C        0.31320    0.72200    0.51420    1.000
    C21      C        0.28700    0.75300    0.66460    1.000
    C22      C        0.21850    0.79980    0.60500    1.000
    C23      C        0.10210    0.86630    0.33040    1.000
    C24      C        0.38740    0.67130    0.57880    1.000
    H9       H        0.17230    0.79590    0.09440    1.000
    H10      H        0.28970    0.71570    0.19660    1.000
    H11      H        0.31730    0.74170    0.81490    1.000
    H12      H        0.19980    0.82200    0.71260    1.000
    O15      O        0.99680    0.09690    0.20300    1.000
    Fe4      Fe       0.49590    0.49470    0.46120    1.000
    O16      O        0.56170    0.37330    0.13570    1.000
    O17      O        0.57900    0.40270    0.46980    1.000
    O18      O        0.91060    0.13490    0.43940    1.000
    O19      O        0.92780    0.16440    0.77350    1.000
    C25      C        0.67630    0.31560    0.39500    1.000
    C26      C        0.70250    0.28460    0.24460    1.000
    C27      C        0.77100    0.23780    0.30420    1.000
    C28      C        0.81320    0.22200    0.51420    1.000
    C29      C        0.78700    0.25300    0.66460    1.000
    C30      C        0.71850    0.29980    0.60500    1.000
    C31      C        0.60210    0.36630    0.33040    1.000
    C32      C        0.88740    0.17130    0.57880    1.000
    H13      H        0.67230    0.29590    0.09440    1.000
    H14      H        0.78970    0.21570    0.19660    1.000
    H15      H        0.81730    0.24170    0.81490    1.000
    H16      H        0.69980    0.32200    0.71260    1.000
    O20      O        0.49680    0.59690    0.20300    1.000
