# CIF file generated by openbabel 3.1.0, see https://openbabel.org
data_I
_chemical_name_common 'image0'
_cell_length_a 39.1332
_cell_length_b 27.4503
_cell_length_c 27.3497
_cell_angle_alpha 90
_cell_angle_beta 134.022
_cell_angle_gamma 90
_space_group_name_H-M_alt 'P 1'
_space_group_name_Hall 'P 1'
loop_
    _symmetry_equiv_pos_as_xyz
    x,y,z
loop_
    _atom_site_label
    _atom_site_type_symbol
    _atom_site_fract_x
    _atom_site_fract_y
    _atom_site_fract_z
    _atom_site_occupancy
    C1       C        0.10420    0.82981    0.90560    1.000
    C2       C        0.10493    0.87344    0.87470    1.000
    C3       C        0.06535    0.89770    0.82280    1.000
    H1       H        0.03680    0.88830    0.80880    1.000
    C4       C        0.06460    0.93650    0.78850    1.000
    H2       H        0.03630    0.95220    0.75270    1.000
    C5       C        0.10760    0.95094    0.80980    1.000
    C6       C        0.14840    0.92750    0.86360    1.000
    H3       H        0.17690    0.93730    0.87790    1.000
    C7       C        0.14918    0.88963    0.89790    1.000
    H4       H        0.17770    0.87500    0.93520    1.000
    C8       C        0.10930    0.99100    0.77460    1.000
    C9       C        0.08040    0.03100    0.75250    1.000
    H5       H        0.05980    0.03340    0.75850    1.000
    C10      C        0.08370    0.06790    0.72050    1.000
    C11      C        0.11030    0.06260    0.70250    1.000
    C12      C        0.13370    0.01990    0.71840    1.000
    H6       H        0.15170    0.01530    0.70820    1.000
    C13      C        0.13050    0.98190    0.75110    1.000
    C14      C        0.10710    0.09890    0.65940    1.000
    C15      C        0.06500    0.11850    0.60060    1.000
    H7       H        0.03650    0.10970    0.58700    1.000
    C16      C        0.06470    0.15160    0.56110    1.000
    H8       H        0.03600    0.16410    0.52150    1.000
    C17      C        0.10534    0.16540    0.57950    1.000
    C18      C        0.14870    0.14900    0.64240    1.000
    H9       H        0.17710    0.16150    0.65870    1.000
    C19      C        0.14980    0.11500    0.68000    1.000
    H10      H        0.17870    0.10240    0.71930    1.000
    C20      C        0.10553    0.19911    0.53650    1.000
    C21      C        0.18470    0.93290    0.74980    1.000
    H11      H        0.16450    0.93710    0.70130    1.000
    H12      H        0.21120    0.95540    0.77380    1.000
    C22      C        0.20180    0.88280    0.76980    1.000
    H13      H        0.17600    0.86130    0.75330    1.000
    H14      H        0.22650    0.88030    0.81900    1.000
    C23      C        0.22190    0.86770    0.73890    1.000
    H15      H        0.19580    0.86440    0.69000    1.000
    H16      H        0.24270    0.89330    0.74760    1.000
    C24      C        0.24950    0.81990    0.76830    1.000
    H17      H        0.23620    0.80020    0.78120    1.000
    H18      H        0.28210    0.82720    0.80950    1.000
    C25      C        0.25000    0.78880    0.72130    1.000
    H19      H        0.25790    0.80980    0.70190    1.000
    H20      H        0.27490    0.76450    0.74880    1.000
    C26      C        0.21500    0.76960    0.67820    1.000
    H21      H        0.21810    0.75120    0.65160    1.000
    H22      H        0.19030    0.79340    0.64990    1.000
    H23      H        0.20720    0.74800    0.69690    1.000
    C27      C        0.02010    0.11940    0.70890    1.000
    H24      H        0.03220    0.10890    0.75240    1.000
    H25      H        0.00850    0.15260    0.69890    1.000
    C28      C        0.99210    0.09110    0.66290    1.000
    H26      H        0.97300    0.07620    0.66930    1.000
    H27      H        0.00920    0.06550    0.66290    1.000
    C29      C        0.95760    0.12020    0.59000    1.000
    H28      H        0.95020    0.15040    0.59950    1.000
    H29      H        0.97900    0.12940    0.58500    1.000
    C30      C        0.91930    0.10980    0.53000    1.000
    H30      H        0.89350    0.13030    0.51590    1.000
    H31      H        0.91080    0.07600    0.52710    1.000
    C31      C        0.09906    0.69774    0.87220    1.000
    C32      C        0.09793    0.66507    0.82790    1.000
    C33      C        0.05464    0.65506    0.76200    1.000
    H32      H        0.02700    0.67030    0.74520    1.000
    C34      C        0.05280    0.62210    0.72110    1.000
    H33      H        0.02370    0.61560    0.67740    1.000
    C35      C        0.09240    0.59960    0.74390    1.000
    C36      C        0.13750    0.61220    0.81040    1.000
    H34      H        0.16550    0.59920    0.82580    1.000
    C37      C        0.13860    0.64430    0.85180    1.000
    H35      H        0.16730    0.65130    0.89570    1.000
    C38      C        0.09190    0.56340    0.70360    1.000
    C39      C        0.08180    0.57210    0.64730    1.000
    H36      H        0.07410    0.60400    0.63140    1.000
    C40      C        0.08160    0.53740    0.60850    1.000
    C41      C        0.09370    0.49210    0.63190    1.000
    C42      C        0.12460    0.48040    0.70800    1.000
    H37      H        0.14160    0.45170    0.72930    1.000
    C43      C        0.12340    0.52060    0.74210    1.000
    C44      C        0.05290    0.39610    0.49940    1.000
    H38      H        0.02460    0.38560    0.45730    1.000
    C45      C        0.05290    0.43650    0.53110    1.000
    H39      H        0.02450    0.45290    0.50860    1.000
    C46      C        0.09210    0.45210    0.59190    1.000
    C47      C        0.13480    0.42720    0.62420    1.000
    H40      H        0.16280    0.43770    0.66660    1.000
    C48      C        0.13610    0.38710    0.59400    1.000
    H41      H        0.16450    0.37080    0.61610    1.000
    C49      C        0.09416    0.37244    0.53040    1.000
    C50      C        0.09436    0.32851    0.49780    1.000
    C51      C        0.95055    0.73380    0.83860    1.000
    H42      H        0.96670    0.71650    0.87870    1.000
    C52      C        0.90215    0.73360    0.79220    1.000
    H43      H        0.88620    0.71700    0.80100    1.000
    C53      C        0.87757    0.75808    0.73250    1.000
    C54      C        0.90345    0.78210    0.72300    1.000
    H44      H        0.88780    0.79950    0.68300    1.000
    C55      C        0.95220    0.78070    0.77190    1.000
    H45      H        0.96910    0.79660    0.76420    1.000
    C56      C        0.74910    0.74240    0.63740    1.000
    H46      H        0.73310    0.73000    0.64840    1.000
    C57      C        0.79880    0.74510    0.68860    1.000
    H47      H        0.81380    0.73790    0.73300    1.000
    C58      C        0.82423    0.75660    0.67820    1.000
    C59      C        0.79890    0.77620    0.61690    1.000
    H48      H        0.81450    0.79020    0.60600    1.000
    C60      C        0.74990    0.77610    0.56920    1.000
    N1       N        0.97614    0.75673    0.83120    1.000
    N2       N        0.72511    0.75578    0.57700    1.000
    O1       O        0.14242    0.80817    0.95135    1.000
    O2       O        0.06369    0.81551    0.88030    1.000
    O3       O        0.14412    0.20932    0.55569    1.000
    O4       O        0.06580    0.21261    0.48213    1.000
    O5       O        0.15680    0.94160    0.76860    1.000
    O6       O        0.05520    0.11020    0.70080    1.000
    O7       O        0.06082    0.71564    0.84999    1.000
    O8       O        0.13942    0.70647    0.93061    1.000
    O9       O        0.05563    0.31213    0.44580    1.000
    O10      O        0.13479    0.31047    0.52865    1.000
    O11      O        0.07750    0.54780    0.55960    1.000
    O12      O        0.13810    0.50540    0.80170    1.000
    Zn1      Zn       0.04852    0.75230    0.90135    1.000
    Zn2      Zn       0.15276    0.74752    0.00449    1.000
    C61      C        0.60420    0.32981    0.90560    1.000
    C62      C        0.60493    0.37344    0.87470    1.000
    C63      C        0.56535    0.39770    0.82280    1.000
    H49      H        0.53680    0.38830    0.80880    1.000
    C64      C        0.56460    0.43650    0.78850    1.000
    H50      H        0.53630    0.45220    0.75270    1.000
    C65      C        0.60760    0.45094    0.80980    1.000
    C66      C        0.64840    0.42750    0.86360    1.000
    H51      H        0.67690    0.43730    0.87790    1.000
    C67      C        0.64918    0.38963    0.89790    1.000
    H52      H        0.67770    0.37500    0.93520    1.000
    C68      C        0.60930    0.49100    0.77460    1.000
    C69      C        0.58040    0.53100    0.75250    1.000
    H53      H        0.55980    0.53340    0.75850    1.000
    C70      C        0.58370    0.56790    0.72050    1.000
    C71      C        0.61030    0.56260    0.70250    1.000
    C72      C        0.63370    0.51990    0.71840    1.000
    H54      H        0.65170    0.51530    0.70820    1.000
    C73      C        0.63050    0.48190    0.75110    1.000
    C74      C        0.60710    0.59890    0.65940    1.000
    C75      C        0.56500    0.61850    0.60060    1.000
    H55      H        0.53650    0.60970    0.58700    1.000
    C76      C        0.56470    0.65160    0.56110    1.000
    H56      H        0.53600    0.66410    0.52150    1.000
    C77      C        0.60534    0.66540    0.57950    1.000
    C78      C        0.64870    0.64900    0.64240    1.000
    H57      H        0.67710    0.66150    0.65870    1.000
    C79      C        0.64980    0.61500    0.68000    1.000
    H58      H        0.67870    0.60240    0.71930    1.000
    C80      C        0.60553    0.69911    0.53650    1.000
    C81      C        0.68470    0.43290    0.74980    1.000
    H59      H        0.66450    0.43710    0.70130    1.000
    H60      H        0.71120    0.45540    0.77380    1.000
    C82      C        0.70180    0.38280    0.76980    1.000
    H61      H        0.67600    0.36130    0.75330    1.000
    H62      H        0.72650    0.38030    0.81900    1.000
    C83      C        0.72190    0.36770    0.73890    1.000
    H63      H        0.69580    0.36440    0.69000    1.000
    H64      H        0.74270    0.39330    0.74760    1.000
    C84      C        0.74950    0.31990    0.76830    1.000
    H65      H        0.73620    0.30020    0.78120    1.000
    H66      H        0.78210    0.32720    0.80950    1.000
    C85      C        0.75000    0.28880    0.72130    1.000
    H67      H        0.75790    0.30980    0.70190    1.000
    H68      H        0.77490    0.26450    0.74880    1.000
    C86      C        0.71500    0.26960    0.67820    1.000
    H69      H        0.71810    0.25120    0.65160    1.000
    H70      H        0.69030    0.29340    0.64990    1.000
    H71      H        0.70720    0.24800    0.69690    1.000
    C87      C        0.52010    0.61940    0.70890    1.000
    H72      H        0.53220    0.60890    0.75240    1.000
    H73      H        0.50850    0.65260    0.69890    1.000
    C88      C        0.49210    0.59110    0.66290    1.000
    H74      H        0.47300    0.57620    0.66930    1.000
    H75      H        0.50920    0.56550    0.66290    1.000
    C89      C        0.45760    0.62020    0.59000    1.000
    H76      H        0.45020    0.65040    0.59950    1.000
    H77      H        0.47900    0.62940    0.58500    1.000
    C90      C        0.41930    0.60980    0.53000    1.000
    H78      H        0.39350    0.63030    0.51590    1.000
    H79      H        0.41080    0.57600    0.52710    1.000
    C91      C        0.59906    0.19774    0.87220    1.000
    C92      C        0.59793    0.16507    0.82790    1.000
    C93      C        0.55464    0.15506    0.76200    1.000
    H80      H        0.52700    0.17030    0.74520    1.000
    C94      C        0.55280    0.12210    0.72110    1.000
    H81      H        0.52370    0.11560    0.67740    1.000
    C95      C        0.59240    0.09960    0.74390    1.000
    C96      C        0.63750    0.11220    0.81040    1.000
    H82      H        0.66550    0.09920    0.82580    1.000
    C97      C        0.63860    0.14430    0.85180    1.000
    H83      H        0.66730    0.15130    0.89570    1.000
    C98      C        0.59190    0.06340    0.70360    1.000
    C99      C        0.58180    0.07210    0.64730    1.000
    H84      H        0.57410    0.10400    0.63140    1.000
    C100     C        0.58160    0.03740    0.60850    1.000
    C101     C        0.59370    0.99210    0.63190    1.000
    C102     C        0.62460    0.98040    0.70800    1.000
    H85      H        0.64160    0.95170    0.72930    1.000
    C103     C        0.62340    0.02060    0.74210    1.000
    C104     C        0.55290    0.89610    0.49940    1.000
    H86      H        0.52460    0.88560    0.45730    1.000
    C105     C        0.55290    0.93650    0.53110    1.000
    H87      H        0.52450    0.95290    0.50860    1.000
    C106     C        0.59210    0.95210    0.59190    1.000
    C107     C        0.63480    0.92720    0.62420    1.000
    H88      H        0.66280    0.93770    0.66660    1.000
    C108     C        0.63610    0.88710    0.59400    1.000
    H89      H        0.66450    0.87080    0.61610    1.000
    C109     C        0.59416    0.87244    0.53040    1.000
    C110     C        0.59436    0.82851    0.49780    1.000
    C111     C        0.45055    0.23380    0.83860    1.000
    H90      H        0.46670    0.21650    0.87870    1.000
    C112     C        0.40215    0.23360    0.79220    1.000
    H91      H        0.38620    0.21700    0.80100    1.000
    C113     C        0.37757    0.25808    0.73250    1.000
    C114     C        0.40345    0.28210    0.72300    1.000
    H92      H        0.38780    0.29950    0.68300    1.000
    C115     C        0.45220    0.28070    0.77190    1.000
    H93      H        0.46910    0.29660    0.76420    1.000
    C116     C        0.24910    0.24240    0.63740    1.000
    H94      H        0.23310    0.23000    0.64840    1.000
    C117     C        0.29880    0.24510    0.68860    1.000
    H95      H        0.31380    0.23790    0.73300    1.000
    C118     C        0.32423    0.25660    0.67820    1.000
    C119     C        0.29890    0.27620    0.61690    1.000
    H96      H        0.31450    0.29020    0.60600    1.000
    C120     C        0.24990    0.27610    0.56920    1.000
    N3       N        0.47614    0.25673    0.83120    1.000
    N4       N        0.22511    0.25578    0.57700    1.000
    O13      O        0.64242    0.30817    0.95135    1.000
    O14      O        0.56369    0.31551    0.88030    1.000
    O15      O        0.64412    0.70932    0.55569    1.000
    O16      O        0.56580    0.71261    0.48213    1.000
    O17      O        0.65680    0.44160    0.76860    1.000
    O18      O        0.55520    0.61020    0.70080    1.000
    O19      O        0.56082    0.21564    0.84999    1.000
    O20      O        0.63942    0.20647    0.93061    1.000
    O21      O        0.55563    0.81213    0.44580    1.000
    O22      O        0.63479    0.81047    0.52865    1.000
    O23      O        0.57750    0.04780    0.55960    1.000
    O24      O        0.63810    0.00540    0.80170    1.000
    Zn3      Zn       0.54852    0.25230    0.90135    1.000
    Zn4      Zn       0.65276    0.24752    0.00449    1.000
    C121     C        0.10420    0.17019    0.40560    1.000
    C122     C        0.10493    0.12656    0.37470    1.000
    C123     C        0.06535    0.10230    0.32280    1.000
    H97      H        0.03680    0.11170    0.30880    1.000
    C124     C        0.06460    0.06350    0.28850    1.000
    H98      H        0.03630    0.04780    0.25270    1.000
    C125     C        0.10760    0.04906    0.30980    1.000
    C126     C        0.14840    0.07250    0.36360    1.000
    H99      H        0.17690    0.06270    0.37790    1.000
    C127     C        0.14918    0.11037    0.39790    1.000
    H100     H        0.17770    0.12500    0.43520    1.000
    C128     C        0.10930    0.00900    0.27460    1.000
    C129     C        0.08040    0.96900    0.25250    1.000
    H101     H        0.05980    0.96660    0.25850    1.000
    C130     C        0.08370    0.93210    0.22050    1.000
    C131     C        0.11030    0.93740    0.20250    1.000
    C132     C        0.13370    0.98010    0.21840    1.000
    H102     H        0.15170    0.98470    0.20820    1.000
    C133     C        0.13050    0.01810    0.25110    1.000
    C134     C        0.10710    0.90110    0.15940    1.000
    C135     C        0.06500    0.88150    0.10060    1.000
    H103     H        0.03650    0.89030    0.08700    1.000
    C136     C        0.06470    0.84840    0.06110    1.000
    H104     H        0.03600    0.83590    0.02150    1.000
    C137     C        0.10534    0.83460    0.07950    1.000
    C138     C        0.14870    0.85100    0.14240    1.000
    H105     H        0.17710    0.83850    0.15870    1.000
    C139     C        0.14980    0.88500    0.18000    1.000
    H106     H        0.17870    0.89760    0.21930    1.000
    C140     C        0.10553    0.80089    0.03650    1.000
    C141     C        0.18470    0.06710    0.24980    1.000
    H107     H        0.16450    0.06290    0.20130    1.000
    H108     H        0.21120    0.04460    0.27380    1.000
    C142     C        0.20180    0.11720    0.26980    1.000
    H109     H        0.17600    0.13870    0.25330    1.000
    H110     H        0.22650    0.11970    0.31900    1.000
    C143     C        0.22190    0.13230    0.23890    1.000
    H111     H        0.19580    0.13560    0.19000    1.000
    H112     H        0.24270    0.10670    0.24760    1.000
    C144     C        0.24950    0.18010    0.26830    1.000
    H113     H        0.23620    0.19980    0.28120    1.000
    H114     H        0.28210    0.17280    0.30950    1.000
    C145     C        0.25000    0.21120    0.22130    1.000
    H115     H        0.25790    0.19020    0.20190    1.000
    H116     H        0.27490    0.23550    0.24880    1.000
    C146     C        0.21500    0.23040    0.17820    1.000
    H117     H        0.21810    0.24880    0.15160    1.000
    H118     H        0.19030    0.20660    0.14990    1.000
    H119     H        0.20720    0.25200    0.19690    1.000
    C147     C        0.02010    0.88060    0.20890    1.000
    H120     H        0.03220    0.89110    0.25240    1.000
    H121     H        0.00850    0.84740    0.19890    1.000
    C148     C        0.99210    0.90890    0.16290    1.000
    H122     H        0.97300    0.92380    0.16930    1.000
    H123     H        0.00920    0.93450    0.16290    1.000
    C149     C        0.95760    0.87980    0.09000    1.000
    H124     H        0.95020    0.84960    0.09950    1.000
    H125     H        0.97900    0.87060    0.08500    1.000
    C150     C        0.91930    0.89020    0.03000    1.000
    H126     H        0.89350    0.86970    0.01590    1.000
    H127     H        0.91080    0.92400    0.02710    1.000
    C151     C        0.09906    0.30226    0.37220    1.000
    C152     C        0.09793    0.33493    0.32790    1.000
    C153     C        0.05464    0.34494    0.26200    1.000
    H128     H        0.02700    0.32970    0.24520    1.000
    C154     C        0.05280    0.37790    0.22110    1.000
    H129     H        0.02370    0.38440    0.17740    1.000
    C155     C        0.09240    0.40040    0.24390    1.000
    C156     C        0.13750    0.38780    0.31040    1.000
    H130     H        0.16550    0.40080    0.32580    1.000
    C157     C        0.13860    0.35570    0.35180    1.000
    H131     H        0.16730    0.34870    0.39570    1.000
    C158     C        0.09190    0.43660    0.20360    1.000
    C159     C        0.08180    0.42790    0.14730    1.000
    H132     H        0.07410    0.39600    0.13140    1.000
    C160     C        0.08160    0.46260    0.10850    1.000
    C161     C        0.09370    0.50790    0.13190    1.000
    C162     C        0.12460    0.51960    0.20800    1.000
    H133     H        0.14160    0.54830    0.22930    1.000
    C163     C        0.12340    0.47940    0.24210    1.000
    C164     C        0.05290    0.60390    0.99940    1.000
    H134     H        0.02460    0.61440    0.95730    1.000
    C165     C        0.05290    0.56350    0.03110    1.000
    H135     H        0.02450    0.54710    0.00860    1.000
    C166     C        0.09210    0.54790    0.09190    1.000
    C167     C        0.13480    0.57280    0.12420    1.000
    H136     H        0.16280    0.56230    0.16660    1.000
    C168     C        0.13610    0.61290    0.09400    1.000
    H137     H        0.16450    0.62920    0.11610    1.000
    C169     C        0.09416    0.62756    0.03040    1.000
    C170     C        0.09436    0.67149    0.99780    1.000
    C171     C        0.95055    0.26620    0.33860    1.000
    H138     H        0.96670    0.28350    0.37870    1.000
    C172     C        0.90215    0.26640    0.29220    1.000
    H139     H        0.88620    0.28300    0.30100    1.000
    C173     C        0.87757    0.24192    0.23250    1.000
    C174     C        0.90345    0.21790    0.22300    1.000
    H140     H        0.88780    0.20050    0.18300    1.000
    C175     C        0.95220    0.21930    0.27190    1.000
    H141     H        0.96910    0.20340    0.26420    1.000
    C176     C        0.74910    0.25760    0.13740    1.000
    H142     H        0.73310    0.27000    0.14840    1.000
    C177     C        0.79880    0.25490    0.18860    1.000
    H143     H        0.81380    0.26210    0.23300    1.000
    C178     C        0.82423    0.24340    0.17820    1.000
    C179     C        0.79890    0.22380    0.11690    1.000
    H144     H        0.81450    0.20980    0.10600    1.000
    C180     C        0.74990    0.22390    0.06920    1.000
    N5       N        0.97614    0.24327    0.33120    1.000
    N6       N        0.72511    0.24422    0.07700    1.000
    O25      O        0.14242    0.19183    0.45135    1.000
    O26      O        0.06369    0.18449    0.38030    1.000
    O27      O        0.14412    0.79068    0.05569    1.000
    O28      O        0.06580    0.78739    0.98213    1.000
    O29      O        0.15680    0.05840    0.26860    1.000
    O30      O        0.05520    0.88980    0.20080    1.000
    O31      O        0.06082    0.28436    0.34999    1.000
    O32      O        0.13942    0.29353    0.43061    1.000
    O33      O        0.05563    0.68787    0.94580    1.000
    O34      O        0.13479    0.68953    0.02865    1.000
    O35      O        0.07750    0.45220    0.05960    1.000
    O36      O        0.13810    0.49460    0.30170    1.000
    Zn5      Zn       0.04852    0.24770    0.40135    1.000
    Zn6      Zn       0.15276    0.25248    0.50449    1.000
    C181     C        0.60420    0.67019    0.40560    1.000
    C182     C        0.60493    0.62656    0.37470    1.000
    C183     C        0.56535    0.60230    0.32280    1.000
    H145     H        0.53680    0.61170    0.30880    1.000
    C184     C        0.56460    0.56350    0.28850    1.000
    H146     H        0.53630    0.54780    0.25270    1.000
    C185     C        0.60760    0.54906    0.30980    1.000
    C186     C        0.64840    0.57250    0.36360    1.000
    H147     H        0.67690    0.56270    0.37790    1.000
    C187     C        0.64918    0.61037    0.39790    1.000
    H148     H        0.67770    0.62500    0.43520    1.000
    C188     C        0.60930    0.50900    0.27460    1.000
    C189     C        0.58040    0.46900    0.25250    1.000
    H149     H        0.55980    0.46660    0.25850    1.000
    C190     C        0.58370    0.43210    0.22050    1.000
    C191     C        0.61030    0.43740    0.20250    1.000
    C192     C        0.63370    0.48010    0.21840    1.000
    H150     H        0.65170    0.48470    0.20820    1.000
    C193     C        0.63050    0.51810    0.25110    1.000
    C194     C        0.60710    0.40110    0.15940    1.000
    C195     C        0.56500    0.38150    0.10060    1.000
    H151     H        0.53650    0.39030    0.08700    1.000
    C196     C        0.56470    0.34840    0.06110    1.000
    H152     H        0.53600    0.33590    0.02150    1.000
    C197     C        0.60534    0.33460    0.07950    1.000
    C198     C        0.64870    0.35100    0.14240    1.000
    H153     H        0.67710    0.33850    0.15870    1.000
    C199     C        0.64980    0.38500    0.18000    1.000
    H154     H        0.67870    0.39760    0.21930    1.000
    C200     C        0.60553    0.30089    0.03650    1.000
    C201     C        0.68470    0.56710    0.24980    1.000
    H155     H        0.66450    0.56290    0.20130    1.000
    H156     H        0.71120    0.54460    0.27380    1.000
    C202     C        0.70180    0.61720    0.26980    1.000
    H157     H        0.67600    0.63870    0.25330    1.000
    H158     H        0.72650    0.61970    0.31900    1.000
    C203     C        0.72190    0.63230    0.23890    1.000
    H159     H        0.69580    0.63560    0.19000    1.000
    H160     H        0.74270    0.60670    0.24760    1.000
    C204     C        0.74950    0.68010    0.26830    1.000
    H161     H        0.73620    0.69980    0.28120    1.000
    H162     H        0.78210    0.67280    0.30950    1.000
    C205     C        0.75000    0.71120    0.22130    1.000
    H163     H        0.75790    0.69020    0.20190    1.000
    H164     H        0.77490    0.73550    0.24880    1.000
    C206     C        0.71500    0.73040    0.17820    1.000
    H165     H        0.71810    0.74880    0.15160    1.000
    H166     H        0.69030    0.70660    0.14990    1.000
    H167     H        0.70720    0.75200    0.19690    1.000
    C207     C        0.52010    0.38060    0.20890    1.000
    H168     H        0.53220    0.39110    0.25240    1.000
    H169     H        0.50850    0.34740    0.19890    1.000
    C208     C        0.49210    0.40890    0.16290    1.000
    H170     H        0.47300    0.42380    0.16930    1.000
    H171     H        0.50920    0.43450    0.16290    1.000
    C209     C        0.45760    0.37980    0.09000    1.000
    H172     H        0.45020    0.34960    0.09950    1.000
    H173     H        0.47900    0.37060    0.08500    1.000
    C210     C        0.41930    0.39020    0.03000    1.000
    H174     H        0.39350    0.36970    0.01590    1.000
    H175     H        0.41080    0.42400    0.02710    1.000
    C211     C        0.59906    0.80226    0.37220    1.000
    C212     C        0.59793    0.83493    0.32790    1.000
    C213     C        0.55464    0.84494    0.26200    1.000
    H176     H        0.52700    0.82970    0.24520    1.000
    C214     C        0.55280    0.87790    0.22110    1.000
    H177     H        0.52370    0.88440    0.17740    1.000
    C215     C        0.59240    0.90040    0.24390    1.000
    C216     C        0.63750    0.88780    0.31040    1.000
    H178     H        0.66550    0.90080    0.32580    1.000
    C217     C        0.63860    0.85570    0.35180    1.000
    H179     H        0.66730    0.84870    0.39570    1.000
    C218     C        0.59190    0.93660    0.20360    1.000
    C219     C        0.58180    0.92790    0.14730    1.000
    H180     H        0.57410    0.89600    0.13140    1.000
    C220     C        0.58160    0.96260    0.10850    1.000
    C221     C        0.59370    0.00790    0.13190    1.000
    C222     C        0.62460    0.01960    0.20800    1.000
    H181     H        0.64160    0.04830    0.22930    1.000
    C223     C        0.62340    0.97940    0.24210    1.000
    C224     C        0.55290    0.10390    0.99940    1.000
    H182     H        0.52460    0.11440    0.95730    1.000
    C225     C        0.55290    0.06350    0.03110    1.000
    H183     H        0.52450    0.04710    0.00860    1.000
    C226     C        0.59210    0.04790    0.09190    1.000
    C227     C        0.63480    0.07280    0.12420    1.000
    H184     H        0.66280    0.06230    0.16660    1.000
    C228     C        0.63610    0.11290    0.09400    1.000
    H185     H        0.66450    0.12920    0.11610    1.000
    C229     C        0.59416    0.12756    0.03040    1.000
    C230     C        0.59436    0.17149    0.99780    1.000
    C231     C        0.45055    0.76620    0.33860    1.000
    H186     H        0.46670    0.78350    0.37870    1.000
    C232     C        0.40215    0.76640    0.29220    1.000
    H187     H        0.38620    0.78300    0.30100    1.000
    C233     C        0.37757    0.74192    0.23250    1.000
    C234     C        0.40345    0.71790    0.22300    1.000
    H188     H        0.38780    0.70050    0.18300    1.000
    C235     C        0.45220    0.71930    0.27190    1.000
    H189     H        0.46910    0.70340    0.26420    1.000
    C236     C        0.24910    0.75760    0.13740    1.000
    H190     H        0.23310    0.77000    0.14840    1.000
    C237     C        0.29880    0.75490    0.18860    1.000
    H191     H        0.31380    0.76210    0.23300    1.000
    C238     C        0.32423    0.74340    0.17820    1.000
    C239     C        0.29890    0.72380    0.11690    1.000
    H192     H        0.31450    0.70980    0.10600    1.000
    C240     C        0.24990    0.72390    0.06920    1.000
    N7       N        0.47614    0.74327    0.33120    1.000
    N8       N        0.22511    0.74422    0.07700    1.000
    O37      O        0.64242    0.69183    0.45135    1.000
    O38      O        0.56369    0.68449    0.38030    1.000
    O39      O        0.64412    0.29068    0.05569    1.000
    O40      O        0.56580    0.28739    0.98213    1.000
    O41      O        0.65680    0.55840    0.26860    1.000
    O42      O        0.55520    0.38980    0.20080    1.000
    O43      O        0.56082    0.78436    0.34999    1.000
    O44      O        0.63942    0.79353    0.43061    1.000
    O45      O        0.55563    0.18787    0.94580    1.000
    O46      O        0.63479    0.18953    0.02865    1.000
    O47      O        0.57750    0.95220    0.05960    1.000
    O48      O        0.63810    0.99460    0.30170    1.000
    Zn7      Zn       0.54852    0.74770    0.40135    1.000
    Zn8      Zn       0.65276    0.75248    0.50449    1.000
    C241     C        0.89580    0.82981    0.59440    1.000
    C242     C        0.89507    0.87344    0.62530    1.000
    C243     C        0.93465    0.89770    0.67720    1.000
    H193     H        0.96320    0.88830    0.69120    1.000
    C244     C        0.93540    0.93650    0.71150    1.000
    H194     H        0.96370    0.95220    0.74730    1.000
    C245     C        0.89240    0.95094    0.69020    1.000
    C246     C        0.85160    0.92750    0.63640    1.000
    H195     H        0.82310    0.93730    0.62210    1.000
    C247     C        0.85082    0.88963    0.60210    1.000
    H196     H        0.82230    0.87500    0.56480    1.000
    C248     C        0.89070    0.99100    0.72540    1.000
    C249     C        0.91960    0.03100    0.74750    1.000
    H197     H        0.94020    0.03340    0.74150    1.000
    C250     C        0.91630    0.06790    0.77950    1.000
    C251     C        0.88970    0.06260    0.79750    1.000
    C252     C        0.86630    0.01990    0.78160    1.000
    H198     H        0.84830    0.01530    0.79180    1.000
    C253     C        0.86950    0.98190    0.74890    1.000
    C254     C        0.89290    0.09890    0.84060    1.000
    C255     C        0.93500    0.11850    0.89940    1.000
    H199     H        0.96350    0.10970    0.91300    1.000
    C256     C        0.93530    0.15160    0.93890    1.000
    H200     H        0.96400    0.16410    0.97850    1.000
    C257     C        0.89466    0.16540    0.92050    1.000
    C258     C        0.85130    0.14900    0.85760    1.000
    H201     H        0.82290    0.16150    0.84130    1.000
    C259     C        0.85020    0.11500    0.82000    1.000
    H202     H        0.82130    0.10240    0.78070    1.000
    C260     C        0.89447    0.19911    0.96350    1.000
    C261     C        0.81530    0.93290    0.75020    1.000
    H203     H        0.83550    0.93710    0.79870    1.000
    H204     H        0.78880    0.95540    0.72620    1.000
    C262     C        0.79820    0.88280    0.73020    1.000
    H205     H        0.82400    0.86130    0.74670    1.000
    H206     H        0.77350    0.88030    0.68100    1.000
    C263     C        0.77810    0.86770    0.76110    1.000
    H207     H        0.80420    0.86440    0.81000    1.000
    H208     H        0.75730    0.89330    0.75240    1.000
    C264     C        0.75050    0.81990    0.73170    1.000
    H209     H        0.76380    0.80020    0.71880    1.000
    H210     H        0.71790    0.82720    0.69050    1.000
    C265     C        0.75000    0.78880    0.77870    1.000
    H211     H        0.74210    0.80980    0.79810    1.000
    H212     H        0.72510    0.76450    0.75120    1.000
    C266     C        0.78500    0.76960    0.82180    1.000
    H213     H        0.78190    0.75120    0.84840    1.000
    H214     H        0.80970    0.79340    0.85010    1.000
    H215     H        0.79280    0.74800    0.80310    1.000
    C267     C        0.97990    0.11940    0.79110    1.000
    H216     H        0.96780    0.10890    0.74760    1.000
    H217     H        0.99150    0.15260    0.80110    1.000
    C268     C        0.00790    0.09110    0.83710    1.000
    H218     H        0.02700    0.07620    0.83070    1.000
    H219     H        0.99080    0.06550    0.83710    1.000
    C269     C        0.04240    0.12020    0.91000    1.000
    H220     H        0.04980    0.15040    0.90050    1.000
    H221     H        0.02100    0.12940    0.91500    1.000
    C270     C        0.08070    0.10980    0.97000    1.000
    H222     H        0.10650    0.13030    0.98410    1.000
    H223     H        0.08920    0.07600    0.97290    1.000
    C271     C        0.90094    0.69774    0.62780    1.000
    C272     C        0.90207    0.66507    0.67210    1.000
    C273     C        0.94536    0.65506    0.73800    1.000
    H224     H        0.97300    0.67030    0.75480    1.000
    C274     C        0.94720    0.62210    0.77890    1.000
    H225     H        0.97630    0.61560    0.82260    1.000
    C275     C        0.90760    0.59960    0.75610    1.000
    C276     C        0.86250    0.61220    0.68960    1.000
    H226     H        0.83450    0.59920    0.67420    1.000
    C277     C        0.86140    0.64430    0.64820    1.000
    H227     H        0.83270    0.65130    0.60430    1.000
    C278     C        0.90810    0.56340    0.79640    1.000
    C279     C        0.91820    0.57210    0.85270    1.000
    H228     H        0.92590    0.60400    0.86860    1.000
    C280     C        0.91840    0.53740    0.89150    1.000
    C281     C        0.90630    0.49210    0.86810    1.000
    C282     C        0.87540    0.48040    0.79200    1.000
    H229     H        0.85840    0.45170    0.77070    1.000
    C283     C        0.87660    0.52060    0.75790    1.000
    C284     C        0.94710    0.39610    0.00060    1.000
    H230     H        0.97540    0.38560    0.04270    1.000
    C285     C        0.94710    0.43650    0.96890    1.000
    H231     H        0.97550    0.45290    0.99140    1.000
    C286     C        0.90790    0.45210    0.90810    1.000
    C287     C        0.86520    0.42720    0.87580    1.000
    H232     H        0.83720    0.43770    0.83340    1.000
    C288     C        0.86390    0.38710    0.90600    1.000
    H233     H        0.83550    0.37080    0.88390    1.000
    C289     C        0.90584    0.37244    0.96960    1.000
    C290     C        0.90564    0.32851    0.00220    1.000
    C291     C        0.04945    0.73380    0.66140    1.000
    H234     H        0.03330    0.71650    0.62130    1.000
    C292     C        0.09785    0.73360    0.70780    1.000
    H235     H        0.11380    0.71700    0.69900    1.000
    C293     C        0.12243    0.75808    0.76750    1.000
    C294     C        0.09655    0.78210    0.77700    1.000
    H236     H        0.11220    0.79950    0.81700    1.000
    C295     C        0.04780    0.78070    0.72810    1.000
    H237     H        0.03090    0.79660    0.73580    1.000
    C296     C        0.25090    0.74240    0.86260    1.000
    H238     H        0.26690    0.73000    0.85160    1.000
    C297     C        0.20120    0.74510    0.81140    1.000
    H239     H        0.18620    0.73790    0.76700    1.000
    C298     C        0.17577    0.75660    0.82180    1.000
    C299     C        0.20110    0.77620    0.88310    1.000
    H240     H        0.18550    0.79020    0.89400    1.000
    C300     C        0.25010    0.77610    0.93080    1.000
    N9       N        0.02386    0.75673    0.66880    1.000
    N10      N        0.27489    0.75578    0.92300    1.000
    O49      O        0.85758    0.80817    0.54865    1.000
    O50      O        0.93631    0.81551    0.61970    1.000
    O51      O        0.85588    0.20932    0.94431    1.000
    O52      O        0.93420    0.21261    0.01787    1.000
    O53      O        0.84320    0.94160    0.73140    1.000
    O54      O        0.94480    0.11020    0.79920    1.000
    O55      O        0.93918    0.71564    0.65001    1.000
    O56      O        0.86058    0.70647    0.56939    1.000
    O57      O        0.94437    0.31213    0.05420    1.000
    O58      O        0.86521    0.31047    0.97135    1.000
    O59      O        0.92250    0.54780    0.94040    1.000
    O60      O        0.86190    0.50540    0.69830    1.000
    Zn9      Zn       0.95148    0.75230    0.59865    1.000
    Zn10     Zn       0.84724    0.74752    0.49551    1.000
    C301     C        0.39580    0.32981    0.59440    1.000
    C302     C        0.39507    0.37344    0.62530    1.000
    C303     C        0.43465    0.39770    0.67720    1.000
    H241     H        0.46320    0.38830    0.69120    1.000
    C304     C        0.43540    0.43650    0.71150    1.000
    H242     H        0.46370    0.45220    0.74730    1.000
    C305     C        0.39240    0.45094    0.69020    1.000
    C306     C        0.35160    0.42750    0.63640    1.000
    H243     H        0.32310    0.43730    0.62210    1.000
    C307     C        0.35082    0.38963    0.60210    1.000
    H244     H        0.32230    0.37500    0.56480    1.000
    C308     C        0.39070    0.49100    0.72540    1.000
    C309     C        0.41960    0.53100    0.74750    1.000
    H245     H        0.44020    0.53340    0.74150    1.000
    C310     C        0.41630    0.56790    0.77950    1.000
    C311     C        0.38970    0.56260    0.79750    1.000
    C312     C        0.36630    0.51990    0.78160    1.000
    H246     H        0.34830    0.51530    0.79180    1.000
    C313     C        0.36950    0.48190    0.74890    1.000
    C314     C        0.39290    0.59890    0.84060    1.000
    C315     C        0.43500    0.61850    0.89940    1.000
    H247     H        0.46350    0.60970    0.91300    1.000
    C316     C        0.43530    0.65160    0.93890    1.000
    H248     H        0.46400    0.66410    0.97850    1.000
    C317     C        0.39466    0.66540    0.92050    1.000
    C318     C        0.35130    0.64900    0.85760    1.000
    H249     H        0.32290    0.66150    0.84130    1.000
    C319     C        0.35020    0.61500    0.82000    1.000
    H250     H        0.32130    0.60240    0.78070    1.000
    C320     C        0.39447    0.69911    0.96350    1.000
    C321     C        0.31530    0.43290    0.75020    1.000
    H251     H        0.33550    0.43710    0.79870    1.000
    H252     H        0.28880    0.45540    0.72620    1.000
    C322     C        0.29820    0.38280    0.73020    1.000
    H253     H        0.32400    0.36130    0.74670    1.000
    H254     H        0.27350    0.38030    0.68100    1.000
    C323     C        0.27810    0.36770    0.76110    1.000
    H255     H        0.30420    0.36440    0.81000    1.000
    H256     H        0.25730    0.39330    0.75240    1.000
    C324     C        0.25050    0.31990    0.73170    1.000
    H257     H        0.26380    0.30020    0.71880    1.000
    H258     H        0.21790    0.32720    0.69050    1.000
    C325     C        0.25000    0.28880    0.77870    1.000
    H259     H        0.24210    0.30980    0.79810    1.000
    H260     H        0.22510    0.26450    0.75120    1.000
    C326     C        0.28500    0.26960    0.82180    1.000
    H261     H        0.28190    0.25120    0.84840    1.000
    H262     H        0.30970    0.29340    0.85010    1.000
    H263     H        0.29280    0.24800    0.80310    1.000
    C327     C        0.47990    0.61940    0.79110    1.000
    H264     H        0.46780    0.60890    0.74760    1.000
    H265     H        0.49150    0.65260    0.80110    1.000
    C328     C        0.50790    0.59110    0.83710    1.000
    H266     H        0.52700    0.57620    0.83070    1.000
    H267     H        0.49080    0.56550    0.83710    1.000
    C329     C        0.54240    0.62020    0.91000    1.000
    H268     H        0.54980    0.65040    0.90050    1.000
    H269     H        0.52100    0.62940    0.91500    1.000
    C330     C        0.58070    0.60980    0.97000    1.000
    H270     H        0.60650    0.63030    0.98410    1.000
    H271     H        0.58920    0.57600    0.97290    1.000
    C331     C        0.40094    0.19774    0.62780    1.000
    C332     C        0.40207    0.16507    0.67210    1.000
    C333     C        0.44536    0.15506    0.73800    1.000
    H272     H        0.47300    0.17030    0.75480    1.000
    C334     C        0.44720    0.12210    0.77890    1.000
    H273     H        0.47630    0.11560    0.82260    1.000
    C335     C        0.40760    0.09960    0.75610    1.000
    C336     C        0.36250    0.11220    0.68960    1.000
    H274     H        0.33450    0.09920    0.67420    1.000
    C337     C        0.36140    0.14430    0.64820    1.000
    H275     H        0.33270    0.15130    0.60430    1.000
    C338     C        0.40810    0.06340    0.79640    1.000
    C339     C        0.41820    0.07210    0.85270    1.000
    H276     H        0.42590    0.10400    0.86860    1.000
    C340     C        0.41840    0.03740    0.89150    1.000
    C341     C        0.40630    0.99210    0.86810    1.000
    C342     C        0.37540    0.98040    0.79200    1.000
    H277     H        0.35840    0.95170    0.77070    1.000
    C343     C        0.37660    0.02060    0.75790    1.000
    C344     C        0.44710    0.89610    0.00060    1.000
    H278     H        0.47540    0.88560    0.04270    1.000
    C345     C        0.44710    0.93650    0.96890    1.000
    H279     H        0.47550    0.95290    0.99140    1.000
    C346     C        0.40790    0.95210    0.90810    1.000
    C347     C        0.36520    0.92720    0.87580    1.000
    H280     H        0.33720    0.93770    0.83340    1.000
    C348     C        0.36390    0.88710    0.90600    1.000
    H281     H        0.33550    0.87080    0.88390    1.000
    C349     C        0.40584    0.87244    0.96960    1.000
    C350     C        0.40564    0.82851    0.00220    1.000
    C351     C        0.54945    0.23380    0.66140    1.000
    H282     H        0.53330    0.21650    0.62130    1.000
    C352     C        0.59785    0.23360    0.70780    1.000
    H283     H        0.61380    0.21700    0.69900    1.000
    C353     C        0.62243    0.25808    0.76750    1.000
    C354     C        0.59655    0.28210    0.77700    1.000
    H284     H        0.61220    0.29950    0.81700    1.000
    C355     C        0.54780    0.28070    0.72810    1.000
    H285     H        0.53090    0.29660    0.73580    1.000
    C356     C        0.75090    0.24240    0.86260    1.000
    H286     H        0.76690    0.23000    0.85160    1.000
    C357     C        0.70120    0.24510    0.81140    1.000
    H287     H        0.68620    0.23790    0.76700    1.000
    C358     C        0.67577    0.25660    0.82180    1.000
    C359     C        0.70110    0.27620    0.88310    1.000
    H288     H        0.68550    0.29020    0.89400    1.000
    C360     C        0.75010    0.27610    0.93080    1.000
    N11      N        0.52386    0.25673    0.66880    1.000
    N12      N        0.77489    0.25578    0.92300    1.000
    O61      O        0.35758    0.30817    0.54865    1.000
    O62      O        0.43631    0.31551    0.61970    1.000
    O63      O        0.35588    0.70932    0.94431    1.000
    O64      O        0.43420    0.71261    0.01787    1.000
    O65      O        0.34320    0.44160    0.73140    1.000
    O66      O        0.44480    0.61020    0.79920    1.000
    O67      O        0.43918    0.21564    0.65001    1.000
    O68      O        0.36058    0.20647    0.56939    1.000
    O69      O        0.44437    0.81213    0.05420    1.000
    O70      O        0.36521    0.81047    0.97135    1.000
    O71      O        0.42250    0.04780    0.94040    1.000
    O72      O        0.36190    0.00540    0.69830    1.000
    Zn11     Zn       0.45148    0.25230    0.59865    1.000
    Zn12     Zn       0.34724    0.24752    0.49551    1.000
    C361     C        0.89580    0.17019    0.09440    1.000
    C362     C        0.89507    0.12656    0.12530    1.000
    C363     C        0.93465    0.10230    0.17720    1.000
    H289     H        0.96320    0.11170    0.19120    1.000
    C364     C        0.93540    0.06350    0.21150    1.000
    H290     H        0.96370    0.04780    0.24730    1.000
    C365     C        0.89240    0.04906    0.19020    1.000
    C366     C        0.85160    0.07250    0.13640    1.000
    H291     H        0.82310    0.06270    0.12210    1.000
    C367     C        0.85082    0.11037    0.10210    1.000
    H292     H        0.82230    0.12500    0.06480    1.000
    C368     C        0.89070    0.00900    0.22540    1.000
    C369     C        0.91960    0.96900    0.24750    1.000
    H293     H        0.94020    0.96660    0.24150    1.000
    C370     C        0.91630    0.93210    0.27950    1.000
    C371     C        0.88970    0.93740    0.29750    1.000
    C372     C        0.86630    0.98010    0.28160    1.000
    H294     H        0.84830    0.98470    0.29180    1.000
    C373     C        0.86950    0.01810    0.24890    1.000
    C374     C        0.89290    0.90110    0.34060    1.000
    C375     C        0.93500    0.88150    0.39940    1.000
    H295     H        0.96350    0.89030    0.41300    1.000
    C376     C        0.93530    0.84840    0.43890    1.000
    H296     H        0.96400    0.83590    0.47850    1.000
    C377     C        0.89466    0.83460    0.42050    1.000
    C378     C        0.85130    0.85100    0.35760    1.000
    H297     H        0.82290    0.83850    0.34130    1.000
    C379     C        0.85020    0.88500    0.32000    1.000
    H298     H        0.82130    0.89760    0.28070    1.000
    C380     C        0.89447    0.80089    0.46350    1.000
    C381     C        0.81530    0.06710    0.25020    1.000
    H299     H        0.83550    0.06290    0.29870    1.000
    H300     H        0.78880    0.04460    0.22620    1.000
    C382     C        0.79820    0.11720    0.23020    1.000
    H301     H        0.82400    0.13870    0.24670    1.000
    H302     H        0.77350    0.11970    0.18100    1.000
    C383     C        0.77810    0.13230    0.26110    1.000
    H303     H        0.80420    0.13560    0.31000    1.000
    H304     H        0.75730    0.10670    0.25240    1.000
    C384     C        0.75050    0.18010    0.23170    1.000
    H305     H        0.76380    0.19980    0.21880    1.000
    H306     H        0.71790    0.17280    0.19050    1.000
    C385     C        0.75000    0.21120    0.27870    1.000
    H307     H        0.74210    0.19020    0.29810    1.000
    H308     H        0.72510    0.23550    0.25120    1.000
    C386     C        0.78500    0.23040    0.32180    1.000
    H309     H        0.78190    0.24880    0.34840    1.000
    H310     H        0.80970    0.20660    0.35010    1.000
    H311     H        0.79280    0.25200    0.30310    1.000
    C387     C        0.97990    0.88060    0.29110    1.000
    H312     H        0.96780    0.89110    0.24760    1.000
    H313     H        0.99150    0.84740    0.30110    1.000
    C388     C        0.00790    0.90890    0.33710    1.000
    H314     H        0.02700    0.92380    0.33070    1.000
    H315     H        0.99080    0.93450    0.33710    1.000
    C389     C        0.04240    0.87980    0.41000    1.000
    H316     H        0.04980    0.84960    0.40050    1.000
    H317     H        0.02100    0.87060    0.41500    1.000
    C390     C        0.08070    0.89020    0.47000    1.000
    H318     H        0.10650    0.86970    0.48410    1.000
    H319     H        0.08920    0.92400    0.47290    1.000
    C391     C        0.90094    0.30226    0.12780    1.000
    C392     C        0.90207    0.33493    0.17210    1.000
    C393     C        0.94536    0.34494    0.23800    1.000
    H320     H        0.97300    0.32970    0.25480    1.000
    C394     C        0.94720    0.37790    0.27890    1.000
    H321     H        0.97630    0.38440    0.32260    1.000
    C395     C        0.90760    0.40040    0.25610    1.000
    C396     C        0.86250    0.38780    0.18960    1.000
    H322     H        0.83450    0.40080    0.17420    1.000
    C397     C        0.86140    0.35570    0.14820    1.000
    H323     H        0.83270    0.34870    0.10430    1.000
    C398     C        0.90810    0.43660    0.29640    1.000
    C399     C        0.91820    0.42790    0.35270    1.000
    H324     H        0.92590    0.39600    0.36860    1.000
    C400     C        0.91840    0.46260    0.39150    1.000
    C401     C        0.90630    0.50790    0.36810    1.000
    C402     C        0.87540    0.51960    0.29200    1.000
    H325     H        0.85840    0.54830    0.27070    1.000
    C403     C        0.87660    0.47940    0.25790    1.000
    C404     C        0.94710    0.60390    0.50060    1.000
    H326     H        0.97540    0.61440    0.54270    1.000
    C405     C        0.94710    0.56350    0.46890    1.000
    H327     H        0.97550    0.54710    0.49140    1.000
    C406     C        0.90790    0.54790    0.40810    1.000
    C407     C        0.86520    0.57280    0.37580    1.000
    H328     H        0.83720    0.56230    0.33340    1.000
    C408     C        0.86390    0.61290    0.40600    1.000
    H329     H        0.83550    0.62920    0.38390    1.000
    C409     C        0.90584    0.62756    0.46960    1.000
    C410     C        0.90564    0.67149    0.50220    1.000
    C411     C        0.04945    0.26620    0.16140    1.000
    H330     H        0.03330    0.28350    0.12130    1.000
    C412     C        0.09785    0.26640    0.20780    1.000
    H331     H        0.11380    0.28300    0.19900    1.000
    C413     C        0.12243    0.24192    0.26750    1.000
    C414     C        0.09655    0.21790    0.27700    1.000
    H332     H        0.11220    0.20050    0.31700    1.000
    C415     C        0.04780    0.21930    0.22810    1.000
    H333     H        0.03090    0.20340    0.23580    1.000
    C416     C        0.25090    0.25760    0.36260    1.000
    H334     H        0.26690    0.27000    0.35160    1.000
    C417     C        0.20120    0.25490    0.31140    1.000
    H335     H        0.18620    0.26210    0.26700    1.000
    C418     C        0.17577    0.24340    0.32180    1.000
    C419     C        0.20110    0.22380    0.38310    1.000
    H336     H        0.18550    0.20980    0.39400    1.000
    C420     C        0.25010    0.22390    0.43080    1.000
    N13      N        0.02386    0.24327    0.16880    1.000
    N14      N        0.27489    0.24422    0.42300    1.000
    O73      O        0.85758    0.19183    0.04865    1.000
    O74      O        0.93631    0.18449    0.11970    1.000
    O75      O        0.85588    0.79068    0.44431    1.000
    O76      O        0.93420    0.78739    0.51787    1.000
    O77      O        0.84320    0.05840    0.23140    1.000
    O78      O        0.94480    0.88980    0.29920    1.000
    O79      O        0.93918    0.28436    0.15001    1.000
    O80      O        0.86058    0.29353    0.06939    1.000
    O81      O        0.94437    0.68787    0.55420    1.000
    O82      O        0.86521    0.68953    0.47135    1.000
    O83      O        0.92250    0.45220    0.44040    1.000
    O84      O        0.86190    0.49460    0.19830    1.000
    Zn13     Zn       0.95148    0.24770    0.09865    1.000
    Zn14     Zn       0.84724    0.25248    0.99551    1.000
    C421     C        0.39580    0.67019    0.09440    1.000
    C422     C        0.39507    0.62656    0.12530    1.000
    C423     C        0.43465    0.60230    0.17720    1.000
    H337     H        0.46320    0.61170    0.19120    1.000
    C424     C        0.43540    0.56350    0.21150    1.000
    H338     H        0.46370    0.54780    0.24730    1.000
    C425     C        0.39240    0.54906    0.19020    1.000
    C426     C        0.35160    0.57250    0.13640    1.000
    H339     H        0.32310    0.56270    0.12210    1.000
    C427     C        0.35082    0.61037    0.10210    1.000
    H340     H        0.32230    0.62500    0.06480    1.000
    C428     C        0.39070    0.50900    0.22540    1.000
    C429     C        0.41960    0.46900    0.24750    1.000
    H341     H        0.44020    0.46660    0.24150    1.000
    C430     C        0.41630    0.43210    0.27950    1.000
    C431     C        0.38970    0.43740    0.29750    1.000
    C432     C        0.36630    0.48010    0.28160    1.000
    H342     H        0.34830    0.48470    0.29180    1.000
    C433     C        0.36950    0.51810    0.24890    1.000
    C434     C        0.39290    0.40110    0.34060    1.000
    C435     C        0.43500    0.38150    0.39940    1.000
    H343     H        0.46350    0.39030    0.41300    1.000
    C436     C        0.43530    0.34840    0.43890    1.000
    H344     H        0.46400    0.33590    0.47850    1.000
    C437     C        0.39466    0.33460    0.42050    1.000
    C438     C        0.35130    0.35100    0.35760    1.000
    H345     H        0.32290    0.33850    0.34130    1.000
    C439     C        0.35020    0.38500    0.32000    1.000
    H346     H        0.32130    0.39760    0.28070    1.000
    C440     C        0.39447    0.30089    0.46350    1.000
    C441     C        0.31530    0.56710    0.25020    1.000
    H347     H        0.33550    0.56290    0.29870    1.000
    H348     H        0.28880    0.54460    0.22620    1.000
    C442     C        0.29820    0.61720    0.23020    1.000
    H349     H        0.32400    0.63870    0.24670    1.000
    H350     H        0.27350    0.61970    0.18100    1.000
    C443     C        0.27810    0.63230    0.26110    1.000
    H351     H        0.30420    0.63560    0.31000    1.000
    H352     H        0.25730    0.60670    0.25240    1.000
    C444     C        0.25050    0.68010    0.23170    1.000
    H353     H        0.26380    0.69980    0.21880    1.000
    H354     H        0.21790    0.67280    0.19050    1.000
    C445     C        0.25000    0.71120    0.27870    1.000
    H355     H        0.24210    0.69020    0.29810    1.000
    H356     H        0.22510    0.73550    0.25120    1.000
    C446     C        0.28500    0.73040    0.32180    1.000
    H357     H        0.28190    0.74880    0.34840    1.000
    H358     H        0.30970    0.70660    0.35010    1.000
    H359     H        0.29280    0.75200    0.30310    1.000
    C447     C        0.47990    0.38060    0.29110    1.000
    H360     H        0.46780    0.39110    0.24760    1.000
    H361     H        0.49150    0.34740    0.30110    1.000
    C448     C        0.50790    0.40890    0.33710    1.000
    H362     H        0.52700    0.42380    0.33070    1.000
    H363     H        0.49080    0.43450    0.33710    1.000
    C449     C        0.54240    0.37980    0.41000    1.000
    H364     H        0.54980    0.34960    0.40050    1.000
    H365     H        0.52100    0.37060    0.41500    1.000
    C450     C        0.58070    0.39020    0.47000    1.000
    H366     H        0.60650    0.36970    0.48410    1.000
    H367     H        0.58920    0.42400    0.47290    1.000
    C451     C        0.40094    0.80226    0.12780    1.000
    C452     C        0.40207    0.83493    0.17210    1.000
    C453     C        0.44536    0.84494    0.23800    1.000
    H368     H        0.47300    0.82970    0.25480    1.000
    C454     C        0.44720    0.87790    0.27890    1.000
    H369     H        0.47630    0.88440    0.32260    1.000
    C455     C        0.40760    0.90040    0.25610    1.000
    C456     C        0.36250    0.88780    0.18960    1.000
    H370     H        0.33450    0.90080    0.17420    1.000
    C457     C        0.36140    0.85570    0.14820    1.000
    H371     H        0.33270    0.84870    0.10430    1.000
    C458     C        0.40810    0.93660    0.29640    1.000
    C459     C        0.41820    0.92790    0.35270    1.000
    H372     H        0.42590    0.89600    0.36860    1.000
    C460     C        0.41840    0.96260    0.39150    1.000
    C461     C        0.40630    0.00790    0.36810    1.000
    C462     C        0.37540    0.01960    0.29200    1.000
    H373     H        0.35840    0.04830    0.27070    1.000
    C463     C        0.37660    0.97940    0.25790    1.000
    C464     C        0.44710    0.10390    0.50060    1.000
    H374     H        0.47540    0.11440    0.54270    1.000
    C465     C        0.44710    0.06350    0.46890    1.000
    H375     H        0.47550    0.04710    0.49140    1.000
    C466     C        0.40790    0.04790    0.40810    1.000
    C467     C        0.36520    0.07280    0.37580    1.000
    H376     H        0.33720    0.06230    0.33340    1.000
    C468     C        0.36390    0.11290    0.40600    1.000
    H377     H        0.33550    0.12920    0.38390    1.000
    C469     C        0.40584    0.12756    0.46960    1.000
    C470     C        0.40564    0.17149    0.50220    1.000
    C471     C        0.54945    0.76620    0.16140    1.000
    H378     H        0.53330    0.78350    0.12130    1.000
    C472     C        0.59785    0.76640    0.20780    1.000
    H379     H        0.61380    0.78300    0.19900    1.000
    C473     C        0.62243    0.74192    0.26750    1.000
    C474     C        0.59655    0.71790    0.27700    1.000
    H380     H        0.61220    0.70050    0.31700    1.000
    C475     C        0.54780    0.71930    0.22810    1.000
    H381     H        0.53090    0.70340    0.23580    1.000
    C476     C        0.75090    0.75760    0.36260    1.000
    H382     H        0.76690    0.77000    0.35160    1.000
    C477     C        0.70120    0.75490    0.31140    1.000
    H383     H        0.68620    0.76210    0.26700    1.000
    C478     C        0.67577    0.74340    0.32180    1.000
    C479     C        0.70110    0.72380    0.38310    1.000
    H384     H        0.68550    0.70980    0.39400    1.000
    C480     C        0.75010    0.72390    0.43080    1.000
    N15      N        0.52386    0.74327    0.16880    1.000
    N16      N        0.77489    0.74422    0.42300    1.000
    O85      O        0.35758    0.69183    0.04865    1.000
    O86      O        0.43631    0.68449    0.11970    1.000
    O87      O        0.35588    0.29068    0.44431    1.000
    O88      O        0.43420    0.28739    0.51787    1.000
    O89      O        0.34320    0.55840    0.23140    1.000
    O90      O        0.44480    0.38980    0.29920    1.000
    O91      O        0.43918    0.78436    0.15001    1.000
    O92      O        0.36058    0.79353    0.06939    1.000
    O93      O        0.44437    0.18787    0.55420    1.000
    O94      O        0.36521    0.18953    0.47135    1.000
    O95      O        0.42250    0.95220    0.44040    1.000
    O96      O        0.36190    0.99460    0.19830    1.000
    Zn15     Zn       0.45148    0.74770    0.09865    1.000
    Zn16     Zn       0.34724    0.75248    0.99551    1.000
