# CIF file generated by openbabel 3.1.0, see https://openbabel.org
data_I
_chemical_name_common 'image0'
_cell_length_a 22.9463
_cell_length_b 22.9463
_cell_length_c 15.7127
_cell_angle_alpha 90
_cell_angle_beta 90
_cell_angle_gamma 120
_space_group_name_H-M_alt 'P 1'
_space_group_name_Hall 'P 1'
loop_
    _symmetry_equiv_pos_as_xyz
    x,y,z
loop_
    _atom_site_label
    _atom_site_type_symbol
    _atom_site_fract_x
    _atom_site_fract_y
    _atom_site_fract_z
    _atom_site_occupancy
    N1       N        0.96840    0.31614    0.42636    1.000
    C1       C        0.99362    0.35906    0.49122    1.000
    H1       H        0.98745    0.39600    0.49624    1.000
    N2       N        0.02858    0.34581    0.54906    1.000
    C2       C        0.99028    0.27002    0.44103    1.000
    C3       C        0.97942    0.21404    0.39599    1.000
    H2       H        0.95500    0.20175    0.34557    1.000
    C4       C        0.00652    0.17741    0.42855    1.000
    H3       H        0.00050    0.13960    0.39924    1.000
    C5       C        0.04331    0.19539    0.50597    1.000
    H4       H        0.06106    0.16932    0.52603    1.000
    C6       C        0.02682    0.28797    0.51787    1.000
    C7       C        0.05324    0.25034    0.55151    1.000
    H5       H        0.07663    0.26190    0.60283    1.000
    N3       N        0.92084    0.41597    0.35053    1.000
    C8       C        0.93823    0.47654    0.32264    1.000
    H6       H        0.96441    0.49411    0.27410    1.000
    N4       N        0.91688    0.51120    0.36640    1.000
    C9       C        0.88027    0.46841    0.43132    1.000
    C10      C        0.84537    0.47680    0.50129    1.000
    H7       H        0.84488    0.51668    0.50854    1.000
    C11      C        0.88211    0.41005    0.42302    1.000
    C12      C        0.84848    0.35486    0.48205    1.000
    H8       H        0.85011    0.31538    0.47604    1.000
    C13      C        0.81287    0.42516    0.55696    1.000
    H9       H        0.78946    0.43022    0.60198    1.000
    C14      C        0.81356    0.36390    0.54876    1.000
    H10      H        0.79057    0.32954    0.58797    1.000
    Zn1      Zn       0.93335    0.33251    0.32710    1.000
    N5       N        0.63507    0.64947    0.75969    1.000
    C15      C        0.66029    0.69239    0.82455    1.000
    H11      H        0.65412    0.72933    0.82957    1.000
    N6       N        0.69525    0.67914    0.88239    1.000
    C16      C        0.65695    0.60335    0.77436    1.000
    C17      C        0.64609    0.54737    0.72932    1.000
    H12      H        0.62167    0.53508    0.67890    1.000
    C18      C        0.67319    0.51074    0.76188    1.000
    H13      H        0.66717    0.47293    0.73257    1.000
    C19      C        0.70998    0.52872    0.83930    1.000
    H14      H        0.72773    0.50265    0.85936    1.000
    C20      C        0.69349    0.62130    0.85120    1.000
    C21      C        0.71991    0.58367    0.88484    1.000
    H15      H        0.74330    0.59523    0.93616    1.000
    N7       N        0.58751    0.74930    0.68386    1.000
    C22      C        0.60490    0.80987    0.65597    1.000
    H16      H        0.63108    0.82744    0.60743    1.000
    N8       N        0.58355    0.84453    0.69973    1.000
    C23      C        0.54694    0.80174    0.76465    1.000
    C24      C        0.51204    0.81013    0.83462    1.000
    H17      H        0.51155    0.85001    0.84187    1.000
    C25      C        0.54878    0.74338    0.75635    1.000
    C26      C        0.51515    0.68819    0.81538    1.000
    H18      H        0.51678    0.64871    0.80937    1.000
    C27      C        0.47954    0.75849    0.89029    1.000
    H19      H        0.45613    0.76355    0.93531    1.000
    C28      C        0.48023    0.69723    0.88209    1.000
    H20      H        0.45724    0.66287    0.92130    1.000
    Zn2      Zn       0.60002    0.66584    0.66043    1.000
    N9       N        0.30173    0.98281    0.09303    1.000
    C29      C        0.32695    0.02573    0.15789    1.000
    H21      H        0.32078    0.06267    0.16291    1.000
    N10      N        0.36191    0.01248    0.21573    1.000
    C30      C        0.32361    0.93669    0.10770    1.000
    C31      C        0.31275    0.88071    0.06266    1.000
    H22      H        0.28833    0.86842    0.01224    1.000
    C32      C        0.33985    0.84408    0.09522    1.000
    H23      H        0.33383    0.80627    0.06591    1.000
    C33      C        0.37664    0.86206    0.17264    1.000
    H24      H        0.39439    0.83599    0.19270    1.000
    C34      C        0.36015    0.95464    0.18454    1.000
    C35      C        0.38657    0.91701    0.21818    1.000
    H25      H        0.40996    0.92857    0.26950    1.000
    N11      N        0.25417    0.08264    0.01720    1.000
    C36      C        0.27156    0.14321    0.98931    1.000
    H26      H        0.29774    0.16078    0.94077    1.000
    N12      N        0.25021    0.17787    0.03307    1.000
    C37      C        0.21360    0.13508    0.09799    1.000
    C38      C        0.17870    0.14347    0.16796    1.000
    H27      H        0.17821    0.18335    0.17521    1.000
    C39      C        0.21544    0.07672    0.08969    1.000
    C40      C        0.18181    0.02153    0.14872    1.000
    H28      H        0.18344    0.98205    0.14271    1.000
    C41      C        0.14620    0.09183    0.22363    1.000
    H29      H        0.12279    0.09689    0.26865    1.000
    C42      C        0.14689    0.03057    0.21543    1.000
    H30      H        0.12390    0.99621    0.25464    1.000
    Zn3      Zn       0.26668    0.99918    0.99377    1.000
    N13      N        0.68386    0.65226    0.42636    1.000
    C43      C        0.64094    0.63456    0.49122    1.000
    H31      H        0.60400    0.59145    0.49624    1.000
    N14      N        0.65419    0.68277    0.54906    1.000
    C44      C        0.72998    0.72026    0.44103    1.000
    C45      C        0.78596    0.76538    0.39599    1.000
    H32      H        0.79825    0.75325    0.34557    1.000
    C46      C        0.82259    0.82911    0.42855    1.000
    H33      H        0.86040    0.86090    0.39924    1.000
    C47      C        0.80461    0.84792    0.50597    1.000
    H34      H        0.83068    0.89174    0.52603    1.000
    C48      C        0.71203    0.73885    0.51787    1.000
    C49      C        0.74966    0.80290    0.55151    1.000
    H35      H        0.73810    0.81473    0.60283    1.000
    N15      N        0.58403    0.50487    0.35053    1.000
    C50      C        0.52346    0.46169    0.32264    1.000
    H36      H        0.50589    0.47030    0.27410    1.000
    N16      N        0.48880    0.40568    0.36640    1.000
    C51      C        0.53159    0.41186    0.43132    1.000
    C52      C        0.52320    0.36857    0.50129    1.000
    H37      H        0.48332    0.32820    0.50854    1.000
    C53      C        0.58995    0.47206    0.42302    1.000
    C54      C        0.64514    0.49362    0.48205    1.000
    H38      H        0.68462    0.53473    0.47604    1.000
    C55      C        0.57484    0.38771    0.55696    1.000
    H39      H        0.56978    0.35924    0.60198    1.000
    C56      C        0.63610    0.44966    0.54876    1.000
    H40      H        0.67046    0.46103    0.58797    1.000
    Zn4      Zn       0.66749    0.60084    0.32710    1.000
    N17      N        0.35053    0.98559    0.75969    1.000
    C57      C        0.30761    0.96789    0.82455    1.000
    H41      H        0.27067    0.92478    0.82957    1.000
    N18      N        0.32086    0.01610    0.88239    1.000
    C58      C        0.39665    0.05359    0.77436    1.000
    C59      C        0.45263    0.09871    0.72932    1.000
    H42      H        0.46492    0.08658    0.67890    1.000
    C60      C        0.48926    0.16244    0.76188    1.000
    H43      H        0.52707    0.19423    0.73257    1.000
    C61      C        0.47128    0.18125    0.83930    1.000
    H44      H        0.49735    0.22507    0.85936    1.000
    C62      C        0.37870    0.07218    0.85120    1.000
    C63      C        0.41633    0.13623    0.88484    1.000
    H45      H        0.40477    0.14806    0.93616    1.000
    N19      N        0.25070    0.83820    0.68386    1.000
    C64      C        0.19013    0.79502    0.65597    1.000
    H46      H        0.17256    0.80363    0.60743    1.000
    N20      N        0.15547    0.73901    0.69973    1.000
    C65      C        0.19826    0.74519    0.76465    1.000
    C66      C        0.18987    0.70190    0.83462    1.000
    H47      H        0.14999    0.66153    0.84187    1.000
    C67      C        0.25662    0.80539    0.75635    1.000
    C68      C        0.31181    0.82695    0.81538    1.000
    H48      H        0.35129    0.86806    0.80937    1.000
    C69      C        0.24151    0.72104    0.89029    1.000
    H49      H        0.23645    0.69257    0.93531    1.000
    C70      C        0.30277    0.78299    0.88209    1.000
    H50      H        0.33713    0.79436    0.92130    1.000
    Zn5      Zn       0.33416    0.93417    0.66043    1.000
    N21      N        0.01719    0.31893    0.09303    1.000
    C71      C        0.97427    0.30123    0.15789    1.000
    H51      H        0.93733    0.25812    0.16291    1.000
    N22      N        0.98752    0.34944    0.21573    1.000
    C72      C        0.06331    0.38693    0.10770    1.000
    C73      C        0.11929    0.43205    0.06266    1.000
    H52      H        0.13158    0.41992    0.01224    1.000
    C74      C        0.15592    0.49578    0.09522    1.000
    H53      H        0.19373    0.52757    0.06591    1.000
    C75      C        0.13794    0.51459    0.17264    1.000
    H54      H        0.16401    0.55841    0.19270    1.000
    C76      C        0.04536    0.40552    0.18454    1.000
    C77      C        0.08299    0.46957    0.21818    1.000
    H55      H        0.07143    0.48140    0.26950    1.000
    N23      N        0.91736    0.17154    0.01720    1.000
    C78      C        0.85679    0.12836    0.98931    1.000
    H56      H        0.83922    0.13697    0.94077    1.000
    N24      N        0.82213    0.07235    0.03307    1.000
    C79      C        0.86492    0.07853    0.09799    1.000
    C80      C        0.85653    0.03524    0.16796    1.000
    H57      H        0.81665    0.99487    0.17521    1.000
    C81      C        0.92328    0.13873    0.08969    1.000
    C82      C        0.97847    0.16029    0.14872    1.000
    H58      H        0.01795    0.20140    0.14271    1.000
    C83      C        0.90817    0.05438    0.22363    1.000
    H59      H        0.90311    0.02591    0.26865    1.000
    C84      C        0.96943    0.11633    0.21543    1.000
    H60      H        0.00379    0.12770    0.25464    1.000
    Zn6      Zn       0.00082    0.26751    0.99377    1.000
    N25      N        0.34774    0.03160    0.42636    1.000
    C85      C        0.36544    0.00638    0.49122    1.000
    H61      H        0.40855    0.01255    0.49624    1.000
    N26      N        0.31723    0.97142    0.54906    1.000
    C86      C        0.27974    0.00972    0.44103    1.000
    C87      C        0.23462    0.02058    0.39599    1.000
    H62      H        0.24675    0.04500    0.34557    1.000
    C88      C        0.17089    0.99348    0.42855    1.000
    H63      H        0.13910    0.99950    0.39924    1.000
    C89      C        0.15208    0.95669    0.50597    1.000
    H64      H        0.10826    0.93894    0.52603    1.000
    C90      C        0.26115    0.97318    0.51787    1.000
    C91      C        0.19710    0.94676    0.55151    1.000
    H65      H        0.18527    0.92337    0.60283    1.000
    N27      N        0.49513    0.07916    0.35053    1.000
    C92      C        0.53831    0.06177    0.32264    1.000
    H66      H        0.52970    0.03559    0.27410    1.000
    N28      N        0.59432    0.08312    0.36640    1.000
    C93      C        0.58814    0.11973    0.43132    1.000
    C94      C        0.63143    0.15463    0.50129    1.000
    H67      H        0.67180    0.15512    0.50854    1.000
    C95      C        0.52794    0.11789    0.42302    1.000
    C96      C        0.50638    0.15152    0.48205    1.000
    H68      H        0.46527    0.14989    0.47604    1.000
    C97      C        0.61229    0.18713    0.55696    1.000
    H69      H        0.64076    0.21054    0.60198    1.000
    C98      C        0.55034    0.18644    0.54876    1.000
    H70      H        0.53897    0.20943    0.58797    1.000
    Zn7      Zn       0.39916    0.06665    0.32710    1.000
    N29      N        0.01441    0.36493    0.75969    1.000
    C99      C        0.03211    0.33971    0.82455    1.000
    H71      H        0.07522    0.34588    0.82957    1.000
    N30      N        0.98390    0.30475    0.88239    1.000
    C100     C        0.94641    0.34305    0.77436    1.000
    C101     C        0.90129    0.35391    0.72932    1.000
    H72      H        0.91342    0.37833    0.67890    1.000
    C102     C        0.83756    0.32681    0.76188    1.000
    H73      H        0.80577    0.33283    0.73257    1.000
    C103     C        0.81875    0.29002    0.83930    1.000
    H74      H        0.77493    0.27227    0.85936    1.000
    C104     C        0.92782    0.30651    0.85120    1.000
    C105     C        0.86377    0.28009    0.88484    1.000
    H75      H        0.85194    0.25670    0.93616    1.000
    N31      N        0.16180    0.41249    0.68386    1.000
    C106     C        0.20498    0.39510    0.65597    1.000
    H76      H        0.19637    0.36892    0.60743    1.000
    N32      N        0.26099    0.41645    0.69973    1.000
    C107     C        0.25481    0.45306    0.76465    1.000
    C108     C        0.29810    0.48796    0.83462    1.000
    H77      H        0.33847    0.48845    0.84187    1.000
    C109     C        0.19461    0.45122    0.75635    1.000
    C110     C        0.17305    0.48485    0.81538    1.000
    H78      H        0.13194    0.48322    0.80937    1.000
    C111     C        0.27896    0.52046    0.89029    1.000
    H79      H        0.30743    0.54387    0.93531    1.000
    C112     C        0.21701    0.51977    0.88209    1.000
    H80      H        0.20564    0.54276    0.92130    1.000
    Zn8      Zn       0.06583    0.39998    0.66043    1.000
    N33      N        0.68107    0.69827    0.09303    1.000
    C113     C        0.69877    0.67305    0.15789    1.000
    H81      H        0.74188    0.67922    0.16291    1.000
    N34      N        0.65056    0.63809    0.21573    1.000
    C114     C        0.61307    0.67639    0.10770    1.000
    C115     C        0.56795    0.68725    0.06266    1.000
    H82      H        0.58008    0.71167    0.01224    1.000
    C116     C        0.50422    0.66015    0.09522    1.000
    H83      H        0.47243    0.66617    0.06591    1.000
    C117     C        0.48541    0.62336    0.17264    1.000
    H84      H        0.44159    0.60561    0.19270    1.000
    C118     C        0.59448    0.63985    0.18454    1.000
    C119     C        0.53043    0.61343    0.21818    1.000
    H85      H        0.51860    0.59004    0.26950    1.000
    N35      N        0.82846    0.74583    0.01720    1.000
    C120     C        0.87164    0.72844    0.98931    1.000
    H86      H        0.86303    0.70226    0.94077    1.000
    N36      N        0.92765    0.74979    0.03307    1.000
    C121     C        0.92147    0.78640    0.09799    1.000
    C122     C        0.96476    0.82130    0.16796    1.000
    H87      H        0.00513    0.82179    0.17521    1.000
    C123     C        0.86127    0.78456    0.08969    1.000
    C124     C        0.83971    0.81819    0.14872    1.000
    H88      H        0.79860    0.81656    0.14271    1.000
    C125     C        0.94562    0.85380    0.22363    1.000
    H89      H        0.97409    0.87721    0.26865    1.000
    C126     C        0.88367    0.85311    0.21543    1.000
    H90      H        0.87230    0.87610    0.25464    1.000
    Zn9      Zn       0.73249    0.73332    0.99377    1.000
    N37      N        0.03160    0.68386    0.57364    1.000
    C127     C        0.00638    0.64094    0.50878    1.000
    H91      H        0.01255    0.60400    0.50376    1.000
    N38      N        0.97142    0.65419    0.45094    1.000
    C128     C        0.00972    0.72998    0.55897    1.000
    C129     C        0.02058    0.78596    0.60401    1.000
    H92      H        0.04500    0.79825    0.65443    1.000
    C130     C        0.99348    0.82259    0.57145    1.000
    H93      H        0.99950    0.86040    0.60076    1.000
    C131     C        0.95669    0.80461    0.49403    1.000
    H94      H        0.93894    0.83068    0.47397    1.000
    C132     C        0.97318    0.71203    0.48213    1.000
    C133     C        0.94676    0.74966    0.44849    1.000
    H95      H        0.92337    0.73810    0.39717    1.000
    N39      N        0.07916    0.58403    0.64947    1.000
    C134     C        0.06177    0.52346    0.67736    1.000
    H96      H        0.03559    0.50589    0.72590    1.000
    N40      N        0.08312    0.48880    0.63360    1.000
    C135     C        0.11973    0.53159    0.56868    1.000
    C136     C        0.15463    0.52320    0.49871    1.000
    H97      H        0.15512    0.48332    0.49146    1.000
    C137     C        0.11789    0.58995    0.57698    1.000
    C138     C        0.15152    0.64514    0.51795    1.000
    H98      H        0.14989    0.68462    0.52396    1.000
    C139     C        0.18713    0.57484    0.44304    1.000
    H99      H        0.21054    0.56978    0.39802    1.000
    C140     C        0.18644    0.63610    0.45124    1.000
    H100     H        0.20943    0.67046    0.41203    1.000
    Zn10     Zn       0.06665    0.66749    0.67290    1.000
    N41      N        0.69827    0.01719    0.90697    1.000
    C141     C        0.67305    0.97427    0.84211    1.000
    H101     H        0.67922    0.93733    0.83709    1.000
    N42      N        0.63809    0.98752    0.78427    1.000
    C142     C        0.67639    0.06331    0.89230    1.000
    C143     C        0.68725    0.11929    0.93734    1.000
    H102     H        0.71167    0.13158    0.98776    1.000
    C144     C        0.66015    0.15592    0.90478    1.000
    H103     H        0.66617    0.19373    0.93409    1.000
    C145     C        0.62336    0.13794    0.82736    1.000
    H104     H        0.60561    0.16401    0.80730    1.000
    C146     C        0.63985    0.04536    0.81546    1.000
    C147     C        0.61343    0.08299    0.78182    1.000
    H105     H        0.59004    0.07143    0.73050    1.000
    N43      N        0.74583    0.91736    0.98280    1.000
    C148     C        0.72844    0.85679    0.01069    1.000
    H106     H        0.70226    0.83922    0.05923    1.000
    N44      N        0.74979    0.82213    0.96693    1.000
    C149     C        0.78640    0.86492    0.90201    1.000
    C150     C        0.82130    0.85653    0.83204    1.000
    H107     H        0.82179    0.81665    0.82479    1.000
    C151     C        0.78456    0.92328    0.91031    1.000
    C152     C        0.81819    0.97847    0.85128    1.000
    H108     H        0.81656    0.01795    0.85729    1.000
    C153     C        0.85380    0.90817    0.77637    1.000
    H109     H        0.87721    0.90311    0.73135    1.000
    C154     C        0.85311    0.96943    0.78457    1.000
    H110     H        0.87610    0.00379    0.74536    1.000
    Zn11     Zn       0.73332    0.00082    0.00623    1.000
    N45      N        0.36493    0.35053    0.24031    1.000
    C155     C        0.33971    0.30761    0.17545    1.000
    H111     H        0.34588    0.27067    0.17043    1.000
    N46      N        0.30475    0.32086    0.11761    1.000
    C156     C        0.34305    0.39665    0.22564    1.000
    C157     C        0.35391    0.45263    0.27068    1.000
    H112     H        0.37833    0.46492    0.32110    1.000
    C158     C        0.32681    0.48926    0.23812    1.000
    H113     H        0.33283    0.52707    0.26743    1.000
    C159     C        0.29002    0.47128    0.16070    1.000
    H114     H        0.27227    0.49735    0.14064    1.000
    C160     C        0.30651    0.37870    0.14880    1.000
    C161     C        0.28009    0.41633    0.11516    1.000
    H115     H        0.25670    0.40477    0.06384    1.000
    N47      N        0.41249    0.25070    0.31614    1.000
    C162     C        0.39510    0.19013    0.34403    1.000
    H116     H        0.36892    0.17256    0.39257    1.000
    N48      N        0.41645    0.15547    0.30027    1.000
    C163     C        0.45306    0.19826    0.23535    1.000
    C164     C        0.48796    0.18987    0.16538    1.000
    H117     H        0.48845    0.14999    0.15813    1.000
    C165     C        0.45122    0.25662    0.24365    1.000
    C166     C        0.48485    0.31181    0.18462    1.000
    H118     H        0.48322    0.35129    0.19063    1.000
    C167     C        0.52046    0.24151    0.10971    1.000
    H119     H        0.54387    0.23645    0.06469    1.000
    C168     C        0.51977    0.30277    0.11791    1.000
    H120     H        0.54276    0.33713    0.07870    1.000
    Zn12     Zn       0.39998    0.33416    0.33957    1.000
    N49      N        0.31614    0.34774    0.57364    1.000
    C169     C        0.35906    0.36544    0.50878    1.000
    H121     H        0.39600    0.40855    0.50376    1.000
    N50      N        0.34581    0.31723    0.45094    1.000
    C170     C        0.27002    0.27974    0.55897    1.000
    C171     C        0.21404    0.23462    0.60401    1.000
    H122     H        0.20175    0.24675    0.65443    1.000
    C172     C        0.17741    0.17089    0.57145    1.000
    H123     H        0.13960    0.13910    0.60076    1.000
    C173     C        0.19539    0.15208    0.49403    1.000
    H124     H        0.16932    0.10826    0.47397    1.000
    C174     C        0.28797    0.26115    0.48213    1.000
    C175     C        0.25034    0.19710    0.44849    1.000
    H125     H        0.26190    0.18527    0.39717    1.000
    N51      N        0.41597    0.49513    0.64947    1.000
    C176     C        0.47654    0.53831    0.67736    1.000
    H126     H        0.49411    0.52970    0.72590    1.000
    N52      N        0.51120    0.59432    0.63360    1.000
    C177     C        0.46841    0.58814    0.56868    1.000
    C178     C        0.47680    0.63143    0.49871    1.000
    H127     H        0.51668    0.67180    0.49146    1.000
    C179     C        0.41005    0.52794    0.57698    1.000
    C180     C        0.35486    0.50638    0.51795    1.000
    H128     H        0.31538    0.46527    0.52396    1.000
    C181     C        0.42516    0.61229    0.44304    1.000
    H129     H        0.43022    0.64076    0.39802    1.000
    C182     C        0.36390    0.55034    0.45124    1.000
    H130     H        0.32954    0.53897    0.41203    1.000
    Zn13     Zn       0.33251    0.39916    0.67290    1.000
    N53      N        0.98281    0.68107    0.90697    1.000
    C183     C        0.02573    0.69877    0.84211    1.000
    H131     H        0.06267    0.74188    0.83709    1.000
    N54      N        0.01248    0.65056    0.78427    1.000
    C184     C        0.93669    0.61307    0.89230    1.000
    C185     C        0.88071    0.56795    0.93734    1.000
    H132     H        0.86842    0.58008    0.98776    1.000
    C186     C        0.84408    0.50422    0.90478    1.000
    H133     H        0.80627    0.47243    0.93409    1.000
    C187     C        0.86206    0.48541    0.82736    1.000
    H134     H        0.83599    0.44159    0.80730    1.000
    C188     C        0.95464    0.59448    0.81546    1.000
    C189     C        0.91701    0.53043    0.78182    1.000
    H135     H        0.92857    0.51860    0.73050    1.000
    N55      N        0.08264    0.82846    0.98280    1.000
    C190     C        0.14321    0.87164    0.01069    1.000
    H136     H        0.16078    0.86303    0.05923    1.000
    N56      N        0.17787    0.92765    0.96693    1.000
    C191     C        0.13508    0.92147    0.90201    1.000
    C192     C        0.14347    0.96476    0.83204    1.000
    H137     H        0.18335    0.00513    0.82479    1.000
    C193     C        0.07672    0.86127    0.91031    1.000
    C194     C        0.02153    0.83971    0.85128    1.000
    H138     H        0.98205    0.79860    0.85729    1.000
    C195     C        0.09183    0.94562    0.77637    1.000
    H139     H        0.09689    0.97409    0.73135    1.000
    C196     C        0.03057    0.88367    0.78457    1.000
    H140     H        0.99621    0.87230    0.74536    1.000
    Zn14     Zn       0.99918    0.73249    0.00623    1.000
    N57      N        0.64947    0.01441    0.24031    1.000
    C197     C        0.69239    0.03211    0.17545    1.000
    H141     H        0.72933    0.07522    0.17043    1.000
    N58      N        0.67914    0.98390    0.11761    1.000
    C198     C        0.60335    0.94641    0.22564    1.000
    C199     C        0.54737    0.90129    0.27068    1.000
    H142     H        0.53508    0.91342    0.32110    1.000
    C200     C        0.51074    0.83756    0.23812    1.000
    H143     H        0.47293    0.80577    0.26743    1.000
    C201     C        0.52872    0.81875    0.16070    1.000
    H144     H        0.50265    0.77493    0.14064    1.000
    C202     C        0.62130    0.92782    0.14880    1.000
    C203     C        0.58367    0.86377    0.11516    1.000
    H145     H        0.59523    0.85194    0.06384    1.000
    N59      N        0.74930    0.16180    0.31614    1.000
    C204     C        0.80987    0.20498    0.34403    1.000
    H146     H        0.82744    0.19637    0.39257    1.000
    N60      N        0.84453    0.26099    0.30027    1.000
    C205     C        0.80174    0.25481    0.23535    1.000
    C206     C        0.81013    0.29810    0.16538    1.000
    H147     H        0.85001    0.33847    0.15813    1.000
    C207     C        0.74338    0.19461    0.24365    1.000
    C208     C        0.68819    0.17305    0.18462    1.000
    H148     H        0.64871    0.13194    0.19063    1.000
    C209     C        0.75849    0.27896    0.10971    1.000
    H149     H        0.76355    0.30743    0.06469    1.000
    C210     C        0.69723    0.21701    0.11791    1.000
    H150     H        0.66287    0.20564    0.07870    1.000
    Zn15     Zn       0.66584    0.06583    0.33957    1.000
    N61      N        0.65226    0.96840    0.57364    1.000
    C211     C        0.63456    0.99362    0.50878    1.000
    H151     H        0.59145    0.98745    0.50376    1.000
    N62      N        0.68277    0.02858    0.45094    1.000
    C212     C        0.72026    0.99028    0.55897    1.000
    C213     C        0.76538    0.97942    0.60401    1.000
    H152     H        0.75325    0.95500    0.65443    1.000
    C214     C        0.82911    0.00652    0.57145    1.000
    H153     H        0.86090    0.00050    0.60076    1.000
    C215     C        0.84792    0.04331    0.49403    1.000
    H154     H        0.89174    0.06106    0.47397    1.000
    C216     C        0.73885    0.02682    0.48213    1.000
    C217     C        0.80290    0.05324    0.44849    1.000
    H155     H        0.81473    0.07663    0.39717    1.000
    N63      N        0.50487    0.92084    0.64947    1.000
    C218     C        0.46169    0.93823    0.67736    1.000
    H156     H        0.47030    0.96441    0.72590    1.000
    N64      N        0.40568    0.91688    0.63360    1.000
    C219     C        0.41186    0.88027    0.56868    1.000
    C220     C        0.36857    0.84537    0.49871    1.000
    H157     H        0.32820    0.84488    0.49146    1.000
    C221     C        0.47206    0.88211    0.57698    1.000
    C222     C        0.49362    0.84848    0.51795    1.000
    H158     H        0.53473    0.85011    0.52396    1.000
    C223     C        0.38771    0.81287    0.44304    1.000
    H159     H        0.35924    0.78946    0.39802    1.000
    C224     C        0.44966    0.81356    0.45124    1.000
    H160     H        0.46103    0.79057    0.41203    1.000
    Zn16     Zn       0.60084    0.93335    0.67290    1.000
    N65      N        0.31893    0.30173    0.90697    1.000
    C225     C        0.30123    0.32695    0.84211    1.000
    H161     H        0.25812    0.32078    0.83709    1.000
    N66      N        0.34944    0.36191    0.78427    1.000
    C226     C        0.38693    0.32361    0.89230    1.000
    C227     C        0.43205    0.31275    0.93734    1.000
    H162     H        0.41992    0.28833    0.98776    1.000
    C228     C        0.49578    0.33985    0.90478    1.000
    H163     H        0.52757    0.33383    0.93409    1.000
    C229     C        0.51459    0.37664    0.82736    1.000
    H164     H        0.55841    0.39439    0.80730    1.000
    C230     C        0.40552    0.36015    0.81546    1.000
    C231     C        0.46957    0.38657    0.78182    1.000
    H165     H        0.48140    0.40996    0.73050    1.000
    N67      N        0.17154    0.25417    0.98280    1.000
    C232     C        0.12836    0.27156    0.01069    1.000
    H166     H        0.13697    0.29774    0.05923    1.000
    N68      N        0.07235    0.25021    0.96693    1.000
    C233     C        0.07853    0.21360    0.90201    1.000
    C234     C        0.03524    0.17870    0.83204    1.000
    H167     H        0.99487    0.17821    0.82479    1.000
    C235     C        0.13873    0.21544    0.91031    1.000
    C236     C        0.16029    0.18181    0.85128    1.000
    H168     H        0.20140    0.18344    0.85729    1.000
    C237     C        0.05438    0.14620    0.77637    1.000
    H169     H        0.02591    0.12279    0.73135    1.000
    C238     C        0.11633    0.14689    0.78457    1.000
    H170     H        0.12770    0.12390    0.74536    1.000
    Zn17     Zn       0.26751    0.26668    0.00623    1.000
    N69      N        0.98559    0.63507    0.24031    1.000
    C239     C        0.96789    0.66029    0.17545    1.000
    H171     H        0.92478    0.65412    0.17043    1.000
    N70      N        0.01610    0.69525    0.11761    1.000
    C240     C        0.05359    0.65695    0.22564    1.000
    C241     C        0.09871    0.64609    0.27068    1.000
    H172     H        0.08658    0.62167    0.32110    1.000
    C242     C        0.16244    0.67319    0.23812    1.000
    H173     H        0.19423    0.66717    0.26743    1.000
    C243     C        0.18125    0.70998    0.16070    1.000
    H174     H        0.22507    0.72773    0.14064    1.000
    C244     C        0.07218    0.69349    0.14880    1.000
    C245     C        0.13623    0.71991    0.11516    1.000
    H175     H        0.14806    0.74330    0.06384    1.000
    N71      N        0.83820    0.58751    0.31614    1.000
    C246     C        0.79502    0.60490    0.34403    1.000
    H176     H        0.80363    0.63108    0.39257    1.000
    N72      N        0.73901    0.58355    0.30027    1.000
    C247     C        0.74519    0.54694    0.23535    1.000
    C248     C        0.70190    0.51204    0.16538    1.000
    H177     H        0.66153    0.51155    0.15813    1.000
    C249     C        0.80539    0.54878    0.24365    1.000
    C250     C        0.82695    0.51515    0.18462    1.000
    H178     H        0.86806    0.51678    0.19063    1.000
    C251     C        0.72104    0.47954    0.10971    1.000
    H179     H        0.69257    0.45613    0.06469    1.000
    C252     C        0.78299    0.48023    0.11791    1.000
    H180     H        0.79436    0.45724    0.07870    1.000
    Zn18     Zn       0.93417    0.60002    0.33957    1.000
