# CIF file generated by openbabel 3.1.0, see https://openbabel.org
data_I
_chemical_name_common 'image0'
_cell_length_a 8.2723
_cell_length_b 20.345
_cell_length_c 8.6343
_cell_angle_alpha 90
_cell_angle_beta 92.36
_cell_angle_gamma 90
_space_group_name_H-M_alt 'P 1'
_space_group_name_Hall 'P 1'
loop_
    _symmetry_equiv_pos_as_xyz
    x,y,z
loop_
    _atom_site_label
    _atom_site_type_symbol
    _atom_site_fract_x
    _atom_site_fract_y
    _atom_site_fract_z
    _atom_site_occupancy
    N1       N        0.82440    0.17370    0.17497    1.000
    N2       N        0.88513    0.07828    0.08636    1.000
    N3       N        0.71693    0.08132    0.09159    1.000
    N4       N        0.85130    0.23687    0.23200    1.000
    N5       N        0.72330    0.26875    0.22160    1.000
    N6       N        0.74680    0.33094    0.28326    1.000
    N7       N        0.84000    0.41647    0.41150    1.000
    N8       N        0.67476    0.42627    0.37118    1.000
    N9       N        0.34348    0.00047    0.36659    1.000
    N10      N        0.15070    0.00079    0.19038    1.000
    N11      N        0.08040    0.00360    0.33536    1.000
    N12      N        0.50050    0.99940    0.42790    1.000
    C1       C        0.94660    0.13332    0.13790    1.000
    H1       H        0.05860    0.14340    0.14790    1.000
    C2       C        0.68330    0.13911    0.14540    1.000
    H2       H        0.57750    0.15510    0.16190    1.000
    C3       C        0.87910    0.35924    0.35860    1.000
    H3       H        0.98330    0.33980    0.37010    1.000
    C4       C        0.62360    0.37465    0.29520    1.000
    H4       H        0.51640    0.36840    0.25430    1.000
    C5       C        0.30770    0.99929    0.21170    1.000
    H5       H        0.38400    0.99770    0.13240    1.000
    C6       C        0.19820    0.00305    0.43890    1.000
    H6       H        0.18620    0.00420    0.54780    1.000
    N13      N        0.17560    0.82630    0.82503    1.000
    N14      N        0.11487    0.92172    0.91364    1.000
    N15      N        0.28307    0.91868    0.90841    1.000
    N16      N        0.14870    0.76313    0.76800    1.000
    N17      N        0.27670    0.73125    0.77840    1.000
    N18      N        0.25320    0.66906    0.71674    1.000
    N19      N        0.16000    0.58353    0.58850    1.000
    N20      N        0.32524    0.57373    0.62882    1.000
    N21      N        0.65652    0.99953    0.63341    1.000
    N22      N        0.84930    0.99921    0.80962    1.000
    N23      N        0.91960    0.99640    0.66464    1.000
    N24      N        0.49950    0.00060    0.57210    1.000
    C7       C        0.05340    0.86668    0.86210    1.000
    H7       H        0.94140    0.85660    0.85210    1.000
    C8       C        0.31670    0.86089    0.85460    1.000
    H8       H        0.42250    0.84490    0.83810    1.000
    C9       C        0.12090    0.64076    0.64140    1.000
    H9       H        0.01670    0.66020    0.62990    1.000
    C10      C        0.37640    0.62535    0.70480    1.000
    H10      H        0.48360    0.63160    0.74570    1.000
    C11      C        0.69230    0.00071    0.78830    1.000
    H11      H        0.61600    0.00230    0.86760    1.000
    C12      C        0.80180    0.99695    0.56110    1.000
    H12      H        0.81380    0.99580    0.45220    1.000
    Cu1      Cu       0.00000    0.00000    0.00000    1.000
    N25      N        0.67560    0.67370    0.32503    1.000
    N26      N        0.61487    0.57828    0.41364    1.000
    N27      N        0.78307    0.58132    0.40841    1.000
    N28      N        0.64870    0.73687    0.26800    1.000
    N29      N        0.77670    0.76875    0.27840    1.000
    N30      N        0.75320    0.83094    0.21674    1.000
    N31      N        0.66000    0.91647    0.08850    1.000
    N32      N        0.82524    0.92627    0.12882    1.000
    N33      N        0.15652    0.50047    0.13341    1.000
    N34      N        0.34930    0.50079    0.30962    1.000
    N35      N        0.41960    0.50360    0.16464    1.000
    N36      N        0.99950    0.49940    0.07210    1.000
    C13      C        0.55340    0.63332    0.36210    1.000
    H13      H        0.44140    0.64340    0.35210    1.000
    C14      C        0.81670    0.63911    0.35460    1.000
    H14      H        0.92250    0.65510    0.33810    1.000
    C15      C        0.62090    0.85924    0.14140    1.000
    H15      H        0.51670    0.83980    0.12990    1.000
    C16      C        0.87640    0.87465    0.20480    1.000
    H16      H        0.98360    0.86840    0.24570    1.000
    C17      C        0.19230    0.49929    0.28830    1.000
    H17      H        0.11600    0.49770    0.36760    1.000
    C18      C        0.30180    0.50305    0.06110    1.000
    H18      H        0.31380    0.50420    0.95220    1.000
    N37      N        0.32440    0.32630    0.67497    1.000
    N38      N        0.38513    0.42172    0.58636    1.000
    N39      N        0.21693    0.41868    0.59159    1.000
    N40      N        0.35130    0.26313    0.73200    1.000
    N41      N        0.22330    0.23125    0.72160    1.000
    N42      N        0.24680    0.16906    0.78326    1.000
    N43      N        0.34000    0.08353    0.91150    1.000
    N44      N        0.17476    0.07373    0.87118    1.000
    N45      N        0.84348    0.49953    0.86659    1.000
    N46      N        0.65070    0.49921    0.69038    1.000
    N47      N        0.58040    0.49640    0.83536    1.000
    N48      N        0.00050    0.50060    0.92790    1.000
    C19      C        0.44660    0.36668    0.63790    1.000
    H19      H        0.55860    0.35660    0.64790    1.000
    C20      C        0.18330    0.36089    0.64540    1.000
    H20      H        0.07750    0.34490    0.66190    1.000
    C21      C        0.37910    0.14076    0.85860    1.000
    H21      H        0.48330    0.16020    0.87010    1.000
    C22      C        0.12360    0.12535    0.79520    1.000
    H22      H        0.01640    0.13160    0.75430    1.000
    C23      C        0.80770    0.50071    0.71170    1.000
    H23      H        0.88400    0.50230    0.63240    1.000
    C24      C        0.69820    0.49695    0.93890    1.000
    H24      H        0.68620    0.49580    0.04780    1.000
    Cu2      Cu       0.50000    0.50000    0.50000    1.000
