# CIF file generated by openbabel 3.1.0, see https://openbabel.org
data_I
_chemical_name_common 'image0'
_cell_length_a 46.64
_cell_length_b 12.447
_cell_length_c 31.37
_cell_angle_alpha 90
_cell_angle_beta 131.263
_cell_angle_gamma 90
_space_group_name_H-M_alt 'P 1'
_space_group_name_Hall 'P 1'
loop_
    _symmetry_equiv_pos_as_xyz
    x,y,z
loop_
    _atom_site_label
    _atom_site_type_symbol
    _atom_site_fract_x
    _atom_site_fract_y
    _atom_site_fract_z
    _atom_site_occupancy
    Cd1      Cd       0.37754    0.62607    0.39546    1.000
    Cd2      Cd       0.08689    0.46801    0.07084    1.000
    Cd3      Cd       0.13959    0.80489    0.12080    1.000
    C1       C        0.05800    0.44670    0.94500    1.000
    H1       H        0.03490    0.45910    0.93610    1.000
    C2       C        0.12530    0.42900    0.20330    1.000
    H2       H        0.14680    0.41580    0.20780    1.000
    C3       C        0.34610    0.65150    0.26990    1.000
    H3       H        0.32900    0.69640    0.26720    1.000
    C4       C        0.16150    0.54950    0.14320    1.000
    C5       C        0.43820    0.40240    0.47150    1.000
    C6       C        0.05810    0.43000    0.90020    1.000
    H4       H        0.03540    0.43470    0.86270    1.000
    C7       C        0.12800    0.41260    0.25130    1.000
    H5       H        0.15090    0.39340    0.28660    1.000
    C8       C        0.34040    0.63200    0.22140    1.000
    H6       H        0.32050    0.66600    0.18770    1.000
    C9       C        0.20340    0.57940    0.18680    1.000
    H7       H        0.20610    0.63730    0.20990    1.000
    H8       H        0.21110    0.60740    0.16680    1.000
    C10      C        0.47400    0.41380    0.53260    1.000
    H9       H        0.46690    0.41780    0.55560    1.000
    H10      H        0.48630    0.48100    0.53720    1.000
    C11      C        0.09280    0.40720    0.91270    1.000
    C12      C        0.09540    0.42620    0.24300    1.000
    C13      C        0.36440    0.56120    0.22250    1.000
    C14      C        0.23150    0.48960    0.22680    1.000
    H11      H        0.22320    0.45740    0.24520    1.000
    H12      H        0.23100    0.43430    0.20460    1.000
    C15      C        0.50410    0.31790    0.55610    1.000
    H13      H        0.52550    0.32860    0.59620    1.000
    H14      H        0.49210    0.25010    0.55160    1.000
    C16      C        0.12690    0.40150    0.97050    1.000
    H15      H        0.15040    0.38690    0.98110    1.000
    C17      C        0.06270    0.46070    0.19140    1.000
    H16      H        0.04060    0.47120    0.18560    1.000
    C18      C        0.39560    0.51790    0.27490    1.000
    H17      H        0.41330    0.47480    0.27820    1.000
    C19      C        0.27210    0.53000    0.27180    1.000
    H18      H        0.28060    0.55940    0.25310    1.000
    H19      H        0.27210    0.58810    0.29240    1.000
    C20      C        0.51870    0.31370    0.52350    1.000
    H20      H        0.49690    0.31080    0.48310    1.000
    H21      H        0.53260    0.37930    0.53100    1.000
    C21      C        0.12300    0.41950    0.01150    1.000
    H22      H        0.14490    0.41310    0.04950    1.000
    C22      C        0.06280    0.48020    0.14710    1.000
    H23      H        0.04070    0.50650    0.11280    1.000
    C23      C        0.39940    0.54030    0.32070    1.000
    H24      H        0.41960    0.50790    0.35480    1.000
    C24      C        0.30030    0.44650    0.31370    1.000
    C25      C        0.54370    0.22050    0.53930    1.000
    C26      C        0.09200    0.38500    0.86650    1.000
    H25      H        0.06930    0.39280    0.82920    1.000
    C27      C        0.09370    0.40580    0.28810    1.000
    H26      H        0.07360    0.43060    0.28490    1.000
    C28      C        0.35790    0.53810    0.17050    1.000
    H27      H        0.33710    0.56910    0.13640    1.000
    C29      C        0.14620    0.30170    0.83510    1.000
    H28      H        0.16950    0.29600    0.87200    1.000
    C30      C        0.14400    0.28300    0.41630    1.000
    H29      H        0.16460    0.26010    0.42010    1.000
    C31      C        0.39460    0.41760    0.12110    1.000
    H30      H        0.41650    0.39230    0.15600    1.000
    C32      C        0.17350    0.21880    0.75080    1.000
    H31      H        0.19590    0.20020    0.75880    1.000
    C33      C        0.11390    0.72850    0.00290    1.000
    H32      H        0.09410    0.70210    0.00000    1.000
    C34      C        0.41680    0.63970    0.52720    1.000
    H33      H        0.43820    0.65560    0.53170    1.000
    C35      C        0.17550    0.24450    0.79750    1.000
    H34      H        0.19850    0.24080    0.83470    1.000
    C36      C        0.11380    0.70720    0.95870    1.000
    H35      H        0.09370    0.66920    0.92690    1.000
    C37      C        0.42100    0.62910    0.57460    1.000
    H36      H        0.44480    0.64060    0.61030    1.000
    C38      C        0.14300    0.27430    0.78600    1.000
    C39      C        0.14320    0.74190    0.96190    1.000
    C40      C        0.38980    0.60100    0.56960    1.000
    C41      C        0.10910    0.27890    0.72870    1.000
    H37      H        0.08660    0.30130    0.71960    1.000
    C42      C        0.17270    0.80100    0.00930    1.000
    H38      H        0.19300    0.82700    0.01310    1.000
    C43      C        0.35540    0.58710    0.51470    1.000
    H39      H        0.33380    0.56920    0.50910    1.000
    C44      C        0.10870    0.25040    0.68540    1.000
    H40      H        0.08580    0.25200    0.64800    1.000
    C45      C        0.17050    0.81880    0.05020    1.000
    H41      H        0.19040    0.85740    0.08200    1.000
    C46      C        0.35270    0.59860    0.47090    1.000
    H42      H        0.32910    0.58620    0.43520    1.000
    N1       N        0.09060    0.44460    0.00040    1.000
    N2       N        0.09290    0.46280    0.15190    1.000
    N3       N        0.37570    0.60780    0.32170    1.000
    N4       N        0.12180    0.35530    0.87590    1.000
    N5       N        0.12200    0.35120    0.33240    1.000
    N6       N        0.37990    0.47680    0.17140    1.000
    N7       N        0.11510    0.33490    0.82550    1.000
    N8       N        0.11710    0.33530    0.37230    1.000
    N9       N        0.36950    0.46730    0.11850    1.000
    N10      N        0.14110    0.22030    0.69660    1.000
    N11      N        0.14140    0.78490    0.04860    1.000
    N12      N        0.38250    0.62780    0.47380    1.000
    O1       O        0.13640    0.62150    0.11590    1.000
    O2       O        0.42190    0.48860    0.44340    1.000
    O3       O        0.15360    0.44980    0.13610    1.000
    O4       O        0.42490    0.30890    0.44960    1.000
    O5       O        0.33570    0.48030    0.35660    1.000
    O6       O        0.57980    0.23190    0.56750    1.000
    O7       O        0.20720    0.84750    0.19190    1.000
    O8       O        0.52960    0.12510    0.52590    1.000
    Cd4      Cd       0.87754    0.12607    0.39546    1.000
    Cd5      Cd       0.58689    0.96801    0.07084    1.000
    Cd6      Cd       0.63959    0.30489    0.12080    1.000
    C47      C        0.55800    0.94670    0.94500    1.000
    H43      H        0.53490    0.95910    0.93610    1.000
    C48      C        0.62530    0.92900    0.20330    1.000
    H44      H        0.64680    0.91580    0.20780    1.000
    C49      C        0.84610    0.15150    0.26990    1.000
    H45      H        0.82900    0.19640    0.26720    1.000
    C50      C        0.66150    0.04950    0.14320    1.000
    C51      C        0.93820    0.90240    0.47150    1.000
    C52      C        0.55810    0.93000    0.90020    1.000
    H46      H        0.53540    0.93470    0.86270    1.000
    C53      C        0.62800    0.91260    0.25130    1.000
    H47      H        0.65090    0.89340    0.28660    1.000
    C54      C        0.84040    0.13200    0.22140    1.000
    H48      H        0.82050    0.16600    0.18770    1.000
    C55      C        0.70340    0.07940    0.18680    1.000
    H49      H        0.70610    0.13730    0.20990    1.000
    H50      H        0.71110    0.10740    0.16680    1.000
    C56      C        0.97400    0.91380    0.53260    1.000
    H51      H        0.96690    0.91780    0.55560    1.000
    H52      H        0.98630    0.98100    0.53720    1.000
    C57      C        0.59280    0.90720    0.91270    1.000
    C58      C        0.59540    0.92620    0.24300    1.000
    C59      C        0.86440    0.06120    0.22250    1.000
    C60      C        0.73150    0.98960    0.22680    1.000
    H53      H        0.72320    0.95740    0.24520    1.000
    H54      H        0.73100    0.93430    0.20460    1.000
    C61      C        0.00410    0.81790    0.55610    1.000
    H55      H        0.02550    0.82860    0.59620    1.000
    H56      H        0.99210    0.75010    0.55160    1.000
    C62      C        0.62690    0.90150    0.97050    1.000
    H57      H        0.65040    0.88690    0.98110    1.000
    C63      C        0.56270    0.96070    0.19140    1.000
    H58      H        0.54060    0.97120    0.18560    1.000
    C64      C        0.89560    0.01790    0.27490    1.000
    H59      H        0.91330    0.97480    0.27820    1.000
    C65      C        0.77210    0.03000    0.27180    1.000
    H60      H        0.78060    0.05940    0.25310    1.000
    H61      H        0.77210    0.08810    0.29240    1.000
    C66      C        0.01870    0.81370    0.52350    1.000
    H62      H        0.99690    0.81080    0.48310    1.000
    H63      H        0.03260    0.87930    0.53100    1.000
    C67      C        0.62300    0.91950    0.01150    1.000
    H64      H        0.64490    0.91310    0.04950    1.000
    C68      C        0.56280    0.98020    0.14710    1.000
    H65      H        0.54070    0.00650    0.11280    1.000
    C69      C        0.89940    0.04030    0.32070    1.000
    H66      H        0.91960    0.00790    0.35480    1.000
    C70      C        0.80030    0.94650    0.31370    1.000
    C71      C        0.04370    0.72050    0.53930    1.000
    C72      C        0.59200    0.88500    0.86650    1.000
    H67      H        0.56930    0.89280    0.82920    1.000
    C73      C        0.59370    0.90580    0.28810    1.000
    H68      H        0.57360    0.93060    0.28490    1.000
    C74      C        0.85790    0.03810    0.17050    1.000
    H69      H        0.83710    0.06910    0.13640    1.000
    C75      C        0.64620    0.80170    0.83510    1.000
    H70      H        0.66950    0.79600    0.87200    1.000
    C76      C        0.64400    0.78300    0.41630    1.000
    H71      H        0.66460    0.76010    0.42010    1.000
    C77      C        0.89460    0.91760    0.12110    1.000
    H72      H        0.91650    0.89230    0.15600    1.000
    C78      C        0.67350    0.71880    0.75080    1.000
    H73      H        0.69590    0.70020    0.75880    1.000
    C79      C        0.61390    0.22850    0.00290    1.000
    H74      H        0.59410    0.20210    0.00000    1.000
    C80      C        0.91680    0.13970    0.52720    1.000
    H75      H        0.93820    0.15560    0.53170    1.000
    C81      C        0.67550    0.74450    0.79750    1.000
    H76      H        0.69850    0.74080    0.83470    1.000
    C82      C        0.61380    0.20720    0.95870    1.000
    H77      H        0.59370    0.16920    0.92690    1.000
    C83      C        0.92100    0.12910    0.57460    1.000
    H78      H        0.94480    0.14060    0.61030    1.000
    C84      C        0.64300    0.77430    0.78600    1.000
    C85      C        0.64320    0.24190    0.96190    1.000
    C86      C        0.88980    0.10100    0.56960    1.000
    C87      C        0.60910    0.77890    0.72870    1.000
    H79      H        0.58660    0.80130    0.71960    1.000
    C88      C        0.67270    0.30100    0.00930    1.000
    H80      H        0.69300    0.32700    0.01310    1.000
    C89      C        0.85540    0.08710    0.51470    1.000
    H81      H        0.83380    0.06920    0.50910    1.000
    C90      C        0.60870    0.75040    0.68540    1.000
    H82      H        0.58580    0.75200    0.64800    1.000
    C91      C        0.67050    0.31880    0.05020    1.000
    H83      H        0.69040    0.35740    0.08200    1.000
    C92      C        0.85270    0.09860    0.47090    1.000
    H84      H        0.82910    0.08620    0.43520    1.000
    N13      N        0.59060    0.94460    0.00040    1.000
    N14      N        0.59290    0.96280    0.15190    1.000
    N15      N        0.87570    0.10780    0.32170    1.000
    N16      N        0.62180    0.85530    0.87590    1.000
    N17      N        0.62200    0.85120    0.33240    1.000
    N18      N        0.87990    0.97680    0.17140    1.000
    N19      N        0.61510    0.83490    0.82550    1.000
    N20      N        0.61710    0.83530    0.37230    1.000
    N21      N        0.86950    0.96730    0.11850    1.000
    N22      N        0.64110    0.72030    0.69660    1.000
    N23      N        0.64140    0.28490    0.04860    1.000
    N24      N        0.88250    0.12780    0.47380    1.000
    O9       O        0.63640    0.12150    0.11590    1.000
    O10      O        0.92190    0.98860    0.44340    1.000
    O11      O        0.65360    0.94980    0.13610    1.000
    O12      O        0.92490    0.80890    0.44960    1.000
    O13      O        0.83570    0.98030    0.35660    1.000
    O14      O        0.07980    0.73190    0.56750    1.000
    O15      O        0.70720    0.34750    0.19190    1.000
    O16      O        0.02960    0.62510    0.52590    1.000
    Cd7      Cd       0.62246    0.62607    0.10454    1.000
    Cd8      Cd       0.91311    0.46801    0.42916    1.000
    Cd9      Cd       0.86041    0.80489    0.37920    1.000
    C93      C        0.94200    0.44670    0.55500    1.000
    H85      H        0.96510    0.45910    0.56390    1.000
    C94      C        0.87470    0.42900    0.29670    1.000
    H86      H        0.85320    0.41580    0.29220    1.000
    C95      C        0.65390    0.65150    0.23010    1.000
    H87      H        0.67100    0.69640    0.23280    1.000
    C96      C        0.83850    0.54950    0.35680    1.000
    C97      C        0.56180    0.40240    0.02850    1.000
    C98      C        0.94190    0.43000    0.59980    1.000
    H88      H        0.96460    0.43470    0.63730    1.000
    C99      C        0.87200    0.41260    0.24870    1.000
    H89      H        0.84910    0.39340    0.21340    1.000
    C100     C        0.65960    0.63200    0.27860    1.000
    H90      H        0.67950    0.66600    0.31230    1.000
    C101     C        0.79660    0.57940    0.31320    1.000
    H91      H        0.79390    0.63730    0.29010    1.000
    H92      H        0.78890    0.60740    0.33320    1.000
    C102     C        0.52600    0.41380    0.96740    1.000
    H93      H        0.53310    0.41780    0.94440    1.000
    H94      H        0.51370    0.48100    0.96280    1.000
    C103     C        0.90720    0.40720    0.58730    1.000
    C104     C        0.90460    0.42620    0.25700    1.000
    C105     C        0.63560    0.56120    0.27750    1.000
    C106     C        0.76850    0.48960    0.27320    1.000
    H95      H        0.77680    0.45740    0.25480    1.000
    H96      H        0.76900    0.43430    0.29540    1.000
    C107     C        0.49590    0.31790    0.94390    1.000
    H97      H        0.47450    0.32860    0.90380    1.000
    H98      H        0.50790    0.25010    0.94840    1.000
    C108     C        0.87310    0.40150    0.52950    1.000
    H99      H        0.84960    0.38690    0.51890    1.000
    C109     C        0.93730    0.46070    0.30860    1.000
    H100     H        0.95940    0.47120    0.31440    1.000
    C110     C        0.60440    0.51790    0.22510    1.000
    H101     H        0.58670    0.47480    0.22180    1.000
    C111     C        0.72790    0.53000    0.22820    1.000
    H102     H        0.71940    0.55940    0.24690    1.000
    H103     H        0.72790    0.58810    0.20760    1.000
    C112     C        0.48130    0.31370    0.97650    1.000
    H104     H        0.50310    0.31080    0.01690    1.000
    H105     H        0.46740    0.37930    0.96900    1.000
    C113     C        0.87700    0.41950    0.48850    1.000
    H106     H        0.85510    0.41310    0.45050    1.000
    C114     C        0.93720    0.48020    0.35290    1.000
    H107     H        0.95930    0.50650    0.38720    1.000
    C115     C        0.60060    0.54030    0.17930    1.000
    H108     H        0.58040    0.50790    0.14520    1.000
    C116     C        0.69970    0.44650    0.18630    1.000
    C117     C        0.45630    0.22050    0.96070    1.000
    C118     C        0.90800    0.38500    0.63350    1.000
    H109     H        0.93070    0.39280    0.67080    1.000
    C119     C        0.90630    0.40580    0.21190    1.000
    H110     H        0.92640    0.43060    0.21510    1.000
    C120     C        0.64210    0.53810    0.32950    1.000
    H111     H        0.66290    0.56910    0.36360    1.000
    C121     C        0.85380    0.30170    0.66490    1.000
    H112     H        0.83050    0.29600    0.62800    1.000
    C122     C        0.85600    0.28300    0.08370    1.000
    H113     H        0.83540    0.26010    0.07990    1.000
    C123     C        0.60540    0.41760    0.37890    1.000
    H114     H        0.58350    0.39230    0.34400    1.000
    C124     C        0.82650    0.21880    0.74920    1.000
    H115     H        0.80410    0.20020    0.74120    1.000
    C125     C        0.88610    0.72850    0.49710    1.000
    H116     H        0.90590    0.70210    0.50000    1.000
    C126     C        0.58320    0.63970    0.97280    1.000
    H117     H        0.56180    0.65560    0.96830    1.000
    C127     C        0.82450    0.24450    0.70250    1.000
    H118     H        0.80150    0.24080    0.66530    1.000
    C128     C        0.88620    0.70720    0.54130    1.000
    H119     H        0.90630    0.66920    0.57310    1.000
    C129     C        0.57900    0.62910    0.92540    1.000
    H120     H        0.55520    0.64060    0.88970    1.000
    C130     C        0.85700    0.27430    0.71400    1.000
    C131     C        0.85680    0.74190    0.53810    1.000
    C132     C        0.61020    0.60100    0.93040    1.000
    C133     C        0.89090    0.27890    0.77130    1.000
    H121     H        0.91340    0.30130    0.78040    1.000
    C134     C        0.82730    0.80100    0.49070    1.000
    H122     H        0.80700    0.82700    0.48690    1.000
    C135     C        0.64460    0.58710    0.98530    1.000
    H123     H        0.66620    0.56920    0.99090    1.000
    C136     C        0.89130    0.25040    0.81460    1.000
    H124     H        0.91420    0.25200    0.85200    1.000
    C137     C        0.82950    0.81880    0.44980    1.000
    H125     H        0.80960    0.85740    0.41800    1.000
    C138     C        0.64730    0.59860    0.02910    1.000
    H126     H        0.67090    0.58620    0.06480    1.000
    N25      N        0.90940    0.44460    0.49960    1.000
    N26      N        0.90710    0.46280    0.34810    1.000
    N27      N        0.62430    0.60780    0.17830    1.000
    N28      N        0.87820    0.35530    0.62410    1.000
    N29      N        0.87800    0.35120    0.16760    1.000
    N30      N        0.62010    0.47680    0.32860    1.000
    N31      N        0.88490    0.33490    0.67450    1.000
    N32      N        0.88290    0.33530    0.12770    1.000
    N33      N        0.63050    0.46730    0.38150    1.000
    N34      N        0.85890    0.22030    0.80340    1.000
    N35      N        0.85860    0.78490    0.45140    1.000
    N36      N        0.61750    0.62780    0.02620    1.000
    O17      O        0.86360    0.62150    0.38410    1.000
    O18      O        0.57810    0.48860    0.05660    1.000
    O19      O        0.84640    0.44980    0.36390    1.000
    O20      O        0.57510    0.30890    0.05040    1.000
    O21      O        0.66430    0.48030    0.14340    1.000
    O22      O        0.42020    0.23190    0.93250    1.000
    O23      O        0.79280    0.84750    0.30810    1.000
    O24      O        0.47040    0.12510    0.97410    1.000
    Cd10     Cd       0.12246    0.12607    0.10454    1.000
    Cd11     Cd       0.41311    0.96801    0.42916    1.000
    Cd12     Cd       0.36041    0.30489    0.37920    1.000
    C139     C        0.44200    0.94670    0.55500    1.000
    H127     H        0.46510    0.95910    0.56390    1.000
    C140     C        0.37470    0.92900    0.29670    1.000
    H128     H        0.35320    0.91580    0.29220    1.000
    C141     C        0.15390    0.15150    0.23010    1.000
    H129     H        0.17100    0.19640    0.23280    1.000
    C142     C        0.33850    0.04950    0.35680    1.000
    C143     C        0.06180    0.90240    0.02850    1.000
    C144     C        0.44190    0.93000    0.59980    1.000
    H130     H        0.46460    0.93470    0.63730    1.000
    C145     C        0.37200    0.91260    0.24870    1.000
    H131     H        0.34910    0.89340    0.21340    1.000
    C146     C        0.15960    0.13200    0.27860    1.000
    H132     H        0.17950    0.16600    0.31230    1.000
    C147     C        0.29660    0.07940    0.31320    1.000
    H133     H        0.29390    0.13730    0.29010    1.000
    H134     H        0.28890    0.10740    0.33320    1.000
    C148     C        0.02600    0.91380    0.96740    1.000
    H135     H        0.03310    0.91780    0.94440    1.000
    H136     H        0.01370    0.98100    0.96280    1.000
    C149     C        0.40720    0.90720    0.58730    1.000
    C150     C        0.40460    0.92620    0.25700    1.000
    C151     C        0.13560    0.06120    0.27750    1.000
    C152     C        0.26850    0.98960    0.27320    1.000
    H137     H        0.27680    0.95740    0.25480    1.000
    H138     H        0.26900    0.93430    0.29540    1.000
    C153     C        0.99590    0.81790    0.94390    1.000
    H139     H        0.97450    0.82860    0.90380    1.000
    H140     H        0.00790    0.75010    0.94840    1.000
    C154     C        0.37310    0.90150    0.52950    1.000
    H141     H        0.34960    0.88690    0.51890    1.000
    C155     C        0.43730    0.96070    0.30860    1.000
    H142     H        0.45940    0.97120    0.31440    1.000
    C156     C        0.10440    0.01790    0.22510    1.000
    H143     H        0.08670    0.97480    0.22180    1.000
    C157     C        0.22790    0.03000    0.22820    1.000
    H144     H        0.21940    0.05940    0.24690    1.000
    H145     H        0.22790    0.08810    0.20760    1.000
    C158     C        0.98130    0.81370    0.97650    1.000
    H146     H        0.00310    0.81080    0.01690    1.000
    H147     H        0.96740    0.87930    0.96900    1.000
    C159     C        0.37700    0.91950    0.48850    1.000
    H148     H        0.35510    0.91310    0.45050    1.000
    C160     C        0.43720    0.98020    0.35290    1.000
    H149     H        0.45930    0.00650    0.38720    1.000
    C161     C        0.10060    0.04030    0.17930    1.000
    H150     H        0.08040    0.00790    0.14520    1.000
    C162     C        0.19970    0.94650    0.18630    1.000
    C163     C        0.95630    0.72050    0.96070    1.000
    C164     C        0.40800    0.88500    0.63350    1.000
    H151     H        0.43070    0.89280    0.67080    1.000
    C165     C        0.40630    0.90580    0.21190    1.000
    H152     H        0.42640    0.93060    0.21510    1.000
    C166     C        0.14210    0.03810    0.32950    1.000
    H153     H        0.16290    0.06910    0.36360    1.000
    C167     C        0.35380    0.80170    0.66490    1.000
    H154     H        0.33050    0.79600    0.62800    1.000
    C168     C        0.35600    0.78300    0.08370    1.000
    H155     H        0.33540    0.76010    0.07990    1.000
    C169     C        0.10540    0.91760    0.37890    1.000
    H156     H        0.08350    0.89230    0.34400    1.000
    C170     C        0.32650    0.71880    0.74920    1.000
    H157     H        0.30410    0.70020    0.74120    1.000
    C171     C        0.38610    0.22850    0.49710    1.000
    H158     H        0.40590    0.20210    0.50000    1.000
    C172     C        0.08320    0.13970    0.97280    1.000
    H159     H        0.06180    0.15560    0.96830    1.000
    C173     C        0.32450    0.74450    0.70250    1.000
    H160     H        0.30150    0.74080    0.66530    1.000
    C174     C        0.38620    0.20720    0.54130    1.000
    H161     H        0.40630    0.16920    0.57310    1.000
    C175     C        0.07900    0.12910    0.92540    1.000
    H162     H        0.05520    0.14060    0.88970    1.000
    C176     C        0.35700    0.77430    0.71400    1.000
    C177     C        0.35680    0.24190    0.53810    1.000
    C178     C        0.11020    0.10100    0.93040    1.000
    C179     C        0.39090    0.77890    0.77130    1.000
    H163     H        0.41340    0.80130    0.78040    1.000
    C180     C        0.32730    0.30100    0.49070    1.000
    H164     H        0.30700    0.32700    0.48690    1.000
    C181     C        0.14460    0.08710    0.98530    1.000
    H165     H        0.16620    0.06920    0.99090    1.000
    C182     C        0.39130    0.75040    0.81460    1.000
    H166     H        0.41420    0.75200    0.85200    1.000
    C183     C        0.32950    0.31880    0.44980    1.000
    H167     H        0.30960    0.35740    0.41800    1.000
    C184     C        0.14730    0.09860    0.02910    1.000
    H168     H        0.17090    0.08620    0.06480    1.000
    N37      N        0.40940    0.94460    0.49960    1.000
    N38      N        0.40710    0.96280    0.34810    1.000
    N39      N        0.12430    0.10780    0.17830    1.000
    N40      N        0.37820    0.85530    0.62410    1.000
    N41      N        0.37800    0.85120    0.16760    1.000
    N42      N        0.12010    0.97680    0.32860    1.000
    N43      N        0.38490    0.83490    0.67450    1.000
    N44      N        0.38290    0.83530    0.12770    1.000
    N45      N        0.13050    0.96730    0.38150    1.000
    N46      N        0.35890    0.72030    0.80340    1.000
    N47      N        0.35860    0.28490    0.45140    1.000
    N48      N        0.11750    0.12780    0.02620    1.000
    O25      O        0.36360    0.12150    0.38410    1.000
    O26      O        0.07810    0.98860    0.05660    1.000
    O27      O        0.34640    0.94980    0.36390    1.000
    O28      O        0.07510    0.80890    0.05040    1.000
    O29      O        0.16430    0.98030    0.14340    1.000
    O30      O        0.92020    0.73190    0.93250    1.000
    O31      O        0.29280    0.34750    0.30810    1.000
    O32      O        0.97040    0.62510    0.97410    1.000
    Cd13     Cd       0.62246    0.37393    0.60454    1.000
    Cd14     Cd       0.91311    0.53199    0.92916    1.000
    Cd15     Cd       0.86041    0.19511    0.87920    1.000
    C185     C        0.94200    0.55330    0.05500    1.000
    H169     H        0.96510    0.54090    0.06390    1.000
    C186     C        0.87470    0.57100    0.79670    1.000
    H170     H        0.85320    0.58420    0.79220    1.000
    C187     C        0.65390    0.34850    0.73010    1.000
    H171     H        0.67100    0.30360    0.73280    1.000
    C188     C        0.83850    0.45050    0.85680    1.000
    C189     C        0.56180    0.59760    0.52850    1.000
    C190     C        0.94190    0.57000    0.09980    1.000
    H172     H        0.96460    0.56530    0.13730    1.000
    C191     C        0.87200    0.58740    0.74870    1.000
    H173     H        0.84910    0.60660    0.71340    1.000
    C192     C        0.65960    0.36800    0.77860    1.000
    H174     H        0.67950    0.33400    0.81230    1.000
    C193     C        0.79660    0.42060    0.81320    1.000
    H175     H        0.79390    0.36270    0.79010    1.000
    H176     H        0.78890    0.39260    0.83320    1.000
    C194     C        0.52600    0.58620    0.46740    1.000
    H177     H        0.53310    0.58220    0.44440    1.000
    H178     H        0.51370    0.51900    0.46280    1.000
    C195     C        0.90720    0.59280    0.08730    1.000
    C196     C        0.90460    0.57380    0.75700    1.000
    C197     C        0.63560    0.43880    0.77750    1.000
    C198     C        0.76850    0.51040    0.77320    1.000
    H179     H        0.77680    0.54260    0.75480    1.000
    H180     H        0.76900    0.56570    0.79540    1.000
    C199     C        0.49590    0.68210    0.44390    1.000
    H181     H        0.47450    0.67140    0.40380    1.000
    H182     H        0.50790    0.74990    0.44840    1.000
    C200     C        0.87310    0.59850    0.02950    1.000
    H183     H        0.84960    0.61310    0.01890    1.000
    C201     C        0.93730    0.53930    0.80860    1.000
    H184     H        0.95940    0.52880    0.81440    1.000
    C202     C        0.60440    0.48210    0.72510    1.000
    H185     H        0.58670    0.52520    0.72180    1.000
    C203     C        0.72790    0.47000    0.72820    1.000
    H186     H        0.71940    0.44060    0.74690    1.000
    H187     H        0.72790    0.41190    0.70760    1.000
    C204     C        0.48130    0.68630    0.47650    1.000
    H188     H        0.50310    0.68920    0.51690    1.000
    H189     H        0.46740    0.62070    0.46900    1.000
    C205     C        0.87700    0.58050    0.98850    1.000
    H190     H        0.85510    0.58690    0.95050    1.000
    C206     C        0.93720    0.51980    0.85290    1.000
    H191     H        0.95930    0.49350    0.88720    1.000
    C207     C        0.60060    0.45970    0.67930    1.000
    H192     H        0.58040    0.49210    0.64520    1.000
    C208     C        0.69970    0.55350    0.68630    1.000
    C209     C        0.45630    0.77950    0.46070    1.000
    C210     C        0.90800    0.61500    0.13350    1.000
    H193     H        0.93070    0.60720    0.17080    1.000
    C211     C        0.90630    0.59420    0.71190    1.000
    H194     H        0.92640    0.56940    0.71510    1.000
    C212     C        0.64210    0.46190    0.82950    1.000
    H195     H        0.66290    0.43090    0.86360    1.000
    C213     C        0.85380    0.69830    0.16490    1.000
    H196     H        0.83050    0.70400    0.12800    1.000
    C214     C        0.85600    0.71700    0.58370    1.000
    H197     H        0.83540    0.73990    0.57990    1.000
    C215     C        0.60540    0.58240    0.87890    1.000
    H198     H        0.58350    0.60770    0.84400    1.000
    C216     C        0.82650    0.78120    0.24920    1.000
    H199     H        0.80410    0.79980    0.24120    1.000
    C217     C        0.88610    0.27150    0.99710    1.000
    H200     H        0.90590    0.29790    0.00000    1.000
    C218     C        0.58320    0.36030    0.47280    1.000
    H201     H        0.56180    0.34440    0.46830    1.000
    C219     C        0.82450    0.75550    0.20250    1.000
    H202     H        0.80150    0.75920    0.16530    1.000
    C220     C        0.88620    0.29280    0.04130    1.000
    H203     H        0.90630    0.33080    0.07310    1.000
    C221     C        0.57900    0.37090    0.42540    1.000
    H204     H        0.55520    0.35940    0.38970    1.000
    C222     C        0.85700    0.72570    0.21400    1.000
    C223     C        0.85680    0.25810    0.03810    1.000
    C224     C        0.61020    0.39900    0.43040    1.000
    C225     C        0.89090    0.72110    0.27130    1.000
    H205     H        0.91340    0.69870    0.28040    1.000
    C226     C        0.82730    0.19900    0.99070    1.000
    H206     H        0.80700    0.17300    0.98690    1.000
    C227     C        0.64460    0.41290    0.48530    1.000
    H207     H        0.66620    0.43080    0.49090    1.000
    C228     C        0.89130    0.74960    0.31460    1.000
    H208     H        0.91420    0.74800    0.35200    1.000
    C229     C        0.82950    0.18120    0.94980    1.000
    H209     H        0.80960    0.14260    0.91800    1.000
    C230     C        0.64730    0.40140    0.52910    1.000
    H210     H        0.67090    0.41380    0.56480    1.000
    N49      N        0.90940    0.55540    0.99960    1.000
    N50      N        0.90710    0.53720    0.84810    1.000
    N51      N        0.62430    0.39220    0.67830    1.000
    N52      N        0.87820    0.64470    0.12410    1.000
    N53      N        0.87800    0.64880    0.66760    1.000
    N54      N        0.62010    0.52320    0.82860    1.000
    N55      N        0.88490    0.66510    0.17450    1.000
    N56      N        0.88290    0.66470    0.62770    1.000
    N57      N        0.63050    0.53270    0.88150    1.000
    N58      N        0.85890    0.77970    0.30340    1.000
    N59      N        0.85860    0.21510    0.95140    1.000
    N60      N        0.61750    0.37220    0.52620    1.000
    O33      O        0.86360    0.37850    0.88410    1.000
    O34      O        0.57810    0.51140    0.55660    1.000
    O35      O        0.84640    0.55020    0.86390    1.000
    O36      O        0.57510    0.69110    0.55040    1.000
    O37      O        0.66430    0.51970    0.64340    1.000
    O38      O        0.42020    0.76810    0.43250    1.000
    O39      O        0.79280    0.15250    0.80810    1.000
    O40      O        0.47040    0.87490    0.47410    1.000
    Cd16     Cd       0.12246    0.87393    0.60454    1.000
    Cd17     Cd       0.41311    0.03199    0.92916    1.000
    Cd18     Cd       0.36041    0.69511    0.87920    1.000
    C231     C        0.44200    0.05330    0.05500    1.000
    H211     H        0.46510    0.04090    0.06390    1.000
    C232     C        0.37470    0.07100    0.79670    1.000
    H212     H        0.35320    0.08420    0.79220    1.000
    C233     C        0.15390    0.84850    0.73010    1.000
    H213     H        0.17100    0.80360    0.73280    1.000
    C234     C        0.33850    0.95050    0.85680    1.000
    C235     C        0.06180    0.09760    0.52850    1.000
    C236     C        0.44190    0.07000    0.09980    1.000
    H214     H        0.46460    0.06530    0.13730    1.000
    C237     C        0.37200    0.08740    0.74870    1.000
    H215     H        0.34910    0.10660    0.71340    1.000
    C238     C        0.15960    0.86800    0.77860    1.000
    H216     H        0.17950    0.83400    0.81230    1.000
    C239     C        0.29660    0.92060    0.81320    1.000
    H217     H        0.29390    0.86270    0.79010    1.000
    H218     H        0.28890    0.89260    0.83320    1.000
    C240     C        0.02600    0.08620    0.46740    1.000
    H219     H        0.03310    0.08220    0.44440    1.000
    H220     H        0.01370    0.01900    0.46280    1.000
    C241     C        0.40720    0.09280    0.08730    1.000
    C242     C        0.40460    0.07380    0.75700    1.000
    C243     C        0.13560    0.93880    0.77750    1.000
    C244     C        0.26850    0.01040    0.77320    1.000
    H221     H        0.27680    0.04260    0.75480    1.000
    H222     H        0.26900    0.06570    0.79540    1.000
    C245     C        0.99590    0.18210    0.44390    1.000
    H223     H        0.97450    0.17140    0.40380    1.000
    H224     H        0.00790    0.24990    0.44840    1.000
    C246     C        0.37310    0.09850    0.02950    1.000
    H225     H        0.34960    0.11310    0.01890    1.000
    C247     C        0.43730    0.03930    0.80860    1.000
    H226     H        0.45940    0.02880    0.81440    1.000
    C248     C        0.10440    0.98210    0.72510    1.000
    H227     H        0.08670    0.02520    0.72180    1.000
    C249     C        0.22790    0.97000    0.72820    1.000
    H228     H        0.21940    0.94060    0.74690    1.000
    H229     H        0.22790    0.91190    0.70760    1.000
    C250     C        0.98130    0.18630    0.47650    1.000
    H230     H        0.00310    0.18920    0.51690    1.000
    H231     H        0.96740    0.12070    0.46900    1.000
    C251     C        0.37700    0.08050    0.98850    1.000
    H232     H        0.35510    0.08690    0.95050    1.000
    C252     C        0.43720    0.01980    0.85290    1.000
    H233     H        0.45930    0.99350    0.88720    1.000
    C253     C        0.10060    0.95970    0.67930    1.000
    H234     H        0.08040    0.99210    0.64520    1.000
    C254     C        0.19970    0.05350    0.68630    1.000
    C255     C        0.95630    0.27950    0.46070    1.000
    C256     C        0.40800    0.11500    0.13350    1.000
    H235     H        0.43070    0.10720    0.17080    1.000
    C257     C        0.40630    0.09420    0.71190    1.000
    H236     H        0.42640    0.06940    0.71510    1.000
    C258     C        0.14210    0.96190    0.82950    1.000
    H237     H        0.16290    0.93090    0.86360    1.000
    C259     C        0.35380    0.19830    0.16490    1.000
    H238     H        0.33050    0.20400    0.12800    1.000
    C260     C        0.35600    0.21700    0.58370    1.000
    H239     H        0.33540    0.23990    0.57990    1.000
    C261     C        0.10540    0.08240    0.87890    1.000
    H240     H        0.08350    0.10770    0.84400    1.000
    C262     C        0.32650    0.28120    0.24920    1.000
    H241     H        0.30410    0.29980    0.24120    1.000
    C263     C        0.38610    0.77150    0.99710    1.000
    H242     H        0.40590    0.79790    0.00000    1.000
    C264     C        0.08320    0.86030    0.47280    1.000
    H243     H        0.06180    0.84440    0.46830    1.000
    C265     C        0.32450    0.25550    0.20250    1.000
    H244     H        0.30150    0.25920    0.16530    1.000
    C266     C        0.38620    0.79280    0.04130    1.000
    H245     H        0.40630    0.83080    0.07310    1.000
    C267     C        0.07900    0.87090    0.42540    1.000
    H246     H        0.05520    0.85940    0.38970    1.000
    C268     C        0.35700    0.22570    0.21400    1.000
    C269     C        0.35680    0.75810    0.03810    1.000
    C270     C        0.11020    0.89900    0.43040    1.000
    C271     C        0.39090    0.22110    0.27130    1.000
    H247     H        0.41340    0.19870    0.28040    1.000
    C272     C        0.32730    0.69900    0.99070    1.000
    H248     H        0.30700    0.67300    0.98690    1.000
    C273     C        0.14460    0.91290    0.48530    1.000
    H249     H        0.16620    0.93080    0.49090    1.000
    C274     C        0.39130    0.24960    0.31460    1.000
    H250     H        0.41420    0.24800    0.35200    1.000
    C275     C        0.32950    0.68120    0.94980    1.000
    H251     H        0.30960    0.64260    0.91800    1.000
    C276     C        0.14730    0.90140    0.52910    1.000
    H252     H        0.17090    0.91380    0.56480    1.000
    N61      N        0.40940    0.05540    0.99960    1.000
    N62      N        0.40710    0.03720    0.84810    1.000
    N63      N        0.12430    0.89220    0.67830    1.000
    N64      N        0.37820    0.14470    0.12410    1.000
    N65      N        0.37800    0.14880    0.66760    1.000
    N66      N        0.12010    0.02320    0.82860    1.000
    N67      N        0.38490    0.16510    0.17450    1.000
    N68      N        0.38290    0.16470    0.62770    1.000
    N69      N        0.13050    0.03270    0.88150    1.000
    N70      N        0.35890    0.27970    0.30340    1.000
    N71      N        0.35860    0.71510    0.95140    1.000
    N72      N        0.11750    0.87220    0.52620    1.000
    O41      O        0.36360    0.87850    0.88410    1.000
    O42      O        0.07810    0.01140    0.55660    1.000
    O43      O        0.34640    0.05020    0.86390    1.000
    O44      O        0.07510    0.19110    0.55040    1.000
    O45      O        0.16430    0.01970    0.64340    1.000
    O46      O        0.92020    0.26810    0.43250    1.000
    O47      O        0.29280    0.65250    0.80810    1.000
    O48      O        0.97040    0.37490    0.47410    1.000
    Cd19     Cd       0.37754    0.37393    0.89546    1.000
    Cd20     Cd       0.08689    0.53199    0.57084    1.000
    Cd21     Cd       0.13959    0.19511    0.62080    1.000
    C277     C        0.05800    0.55330    0.44500    1.000
    H253     H        0.03490    0.54090    0.43610    1.000
    C278     C        0.12530    0.57100    0.70330    1.000
    H254     H        0.14680    0.58420    0.70780    1.000
    C279     C        0.34610    0.34850    0.76990    1.000
    H255     H        0.32900    0.30360    0.76720    1.000
    C280     C        0.16150    0.45050    0.64320    1.000
    C281     C        0.43820    0.59760    0.97150    1.000
    C282     C        0.05810    0.57000    0.40020    1.000
    H256     H        0.03540    0.56530    0.36270    1.000
    C283     C        0.12800    0.58740    0.75130    1.000
    H257     H        0.15090    0.60660    0.78660    1.000
    C284     C        0.34040    0.36800    0.72140    1.000
    H258     H        0.32050    0.33400    0.68770    1.000
    C285     C        0.20340    0.42060    0.68680    1.000
    H259     H        0.20610    0.36270    0.70990    1.000
    H260     H        0.21110    0.39260    0.66680    1.000
    C286     C        0.47400    0.58620    0.03260    1.000
    H261     H        0.46690    0.58220    0.05560    1.000
    H262     H        0.48630    0.51900    0.03720    1.000
    C287     C        0.09280    0.59280    0.41270    1.000
    C288     C        0.09540    0.57380    0.74300    1.000
    C289     C        0.36440    0.43880    0.72250    1.000
    C290     C        0.23150    0.51040    0.72680    1.000
    H263     H        0.22320    0.54260    0.74520    1.000
    H264     H        0.23100    0.56570    0.70460    1.000
    C291     C        0.50410    0.68210    0.05610    1.000
    H265     H        0.52550    0.67140    0.09620    1.000
    H266     H        0.49210    0.74990    0.05160    1.000
    C292     C        0.12690    0.59850    0.47050    1.000
    H267     H        0.15040    0.61310    0.48110    1.000
    C293     C        0.06270    0.53930    0.69140    1.000
    H268     H        0.04060    0.52880    0.68560    1.000
    C294     C        0.39560    0.48210    0.77490    1.000
    H269     H        0.41330    0.52520    0.77820    1.000
    C295     C        0.27210    0.47000    0.77180    1.000
    H270     H        0.28060    0.44060    0.75310    1.000
    H271     H        0.27210    0.41190    0.79240    1.000
    C296     C        0.51870    0.68630    0.02350    1.000
    H272     H        0.49690    0.68920    0.98310    1.000
    H273     H        0.53260    0.62070    0.03100    1.000
    C297     C        0.12300    0.58050    0.51150    1.000
    H274     H        0.14490    0.58690    0.54950    1.000
    C298     C        0.06280    0.51980    0.64710    1.000
    H275     H        0.04070    0.49350    0.61280    1.000
    C299     C        0.39940    0.45970    0.82070    1.000
    H276     H        0.41960    0.49210    0.85480    1.000
    C300     C        0.30030    0.55350    0.81370    1.000
    C301     C        0.54370    0.77950    0.03930    1.000
    C302     C        0.09200    0.61500    0.36650    1.000
    H277     H        0.06930    0.60720    0.32920    1.000
    C303     C        0.09370    0.59420    0.78810    1.000
    H278     H        0.07360    0.56940    0.78490    1.000
    C304     C        0.35790    0.46190    0.67050    1.000
    H279     H        0.33710    0.43090    0.63640    1.000
    C305     C        0.14620    0.69830    0.33510    1.000
    H280     H        0.16950    0.70400    0.37200    1.000
    C306     C        0.14400    0.71700    0.91630    1.000
    H281     H        0.16460    0.73990    0.92010    1.000
    C307     C        0.39460    0.58240    0.62110    1.000
    H282     H        0.41650    0.60770    0.65600    1.000
    C308     C        0.17350    0.78120    0.25080    1.000
    H283     H        0.19590    0.79980    0.25880    1.000
    C309     C        0.11390    0.27150    0.50290    1.000
    H284     H        0.09410    0.29790    0.50000    1.000
    C310     C        0.41680    0.36030    0.02720    1.000
    H285     H        0.43820    0.34440    0.03170    1.000
    C311     C        0.17550    0.75550    0.29750    1.000
    H286     H        0.19850    0.75920    0.33470    1.000
    C312     C        0.11380    0.29280    0.45870    1.000
    H287     H        0.09370    0.33080    0.42690    1.000
    C313     C        0.42100    0.37090    0.07460    1.000
    H288     H        0.44480    0.35940    0.11030    1.000
    C314     C        0.14300    0.72570    0.28600    1.000
    C315     C        0.14320    0.25810    0.46190    1.000
    C316     C        0.38980    0.39900    0.06960    1.000
    C317     C        0.10910    0.72110    0.22870    1.000
    H289     H        0.08660    0.69870    0.21960    1.000
    C318     C        0.17270    0.19900    0.50930    1.000
    H290     H        0.19300    0.17300    0.51310    1.000
    C319     C        0.35540    0.41290    0.01470    1.000
    H291     H        0.33380    0.43080    0.00910    1.000
    C320     C        0.10870    0.74960    0.18540    1.000
    H292     H        0.08580    0.74800    0.14800    1.000
    C321     C        0.17050    0.18120    0.55020    1.000
    H293     H        0.19040    0.14260    0.58200    1.000
    C322     C        0.35270    0.40140    0.97090    1.000
    H294     H        0.32910    0.41380    0.93520    1.000
    N73      N        0.09060    0.55540    0.50040    1.000
    N74      N        0.09290    0.53720    0.65190    1.000
    N75      N        0.37570    0.39220    0.82170    1.000
    N76      N        0.12180    0.64470    0.37590    1.000
    N77      N        0.12200    0.64880    0.83240    1.000
    N78      N        0.37990    0.52320    0.67140    1.000
    N79      N        0.11510    0.66510    0.32550    1.000
    N80      N        0.11710    0.66470    0.87230    1.000
    N81      N        0.36950    0.53270    0.61850    1.000
    N82      N        0.14110    0.77970    0.19660    1.000
    N83      N        0.14140    0.21510    0.54860    1.000
    N84      N        0.38250    0.37220    0.97380    1.000
    O49      O        0.13640    0.37850    0.61590    1.000
    O50      O        0.42190    0.51140    0.94340    1.000
    O51      O        0.15360    0.55020    0.63610    1.000
    O52      O        0.42490    0.69110    0.94960    1.000
    O53      O        0.33570    0.51970    0.85660    1.000
    O54      O        0.57980    0.76810    0.06750    1.000
    O55      O        0.20720    0.15250    0.69190    1.000
    O56      O        0.52960    0.87490    0.02590    1.000
    Cd22     Cd       0.87754    0.87393    0.89546    1.000
    Cd23     Cd       0.58689    0.03199    0.57084    1.000
    Cd24     Cd       0.63959    0.69511    0.62080    1.000
    C323     C        0.55800    0.05330    0.44500    1.000
    H295     H        0.53490    0.04090    0.43610    1.000
    C324     C        0.62530    0.07100    0.70330    1.000
    H296     H        0.64680    0.08420    0.70780    1.000
    C325     C        0.84610    0.84850    0.76990    1.000
    H297     H        0.82900    0.80360    0.76720    1.000
    C326     C        0.66150    0.95050    0.64320    1.000
    C327     C        0.93820    0.09760    0.97150    1.000
    C328     C        0.55810    0.07000    0.40020    1.000
    H298     H        0.53540    0.06530    0.36270    1.000
    C329     C        0.62800    0.08740    0.75130    1.000
    H299     H        0.65090    0.10660    0.78660    1.000
    C330     C        0.84040    0.86800    0.72140    1.000
    H300     H        0.82050    0.83400    0.68770    1.000
    C331     C        0.70340    0.92060    0.68680    1.000
    H301     H        0.70610    0.86270    0.70990    1.000
    H302     H        0.71110    0.89260    0.66680    1.000
    C332     C        0.97400    0.08620    0.03260    1.000
    H303     H        0.96690    0.08220    0.05560    1.000
    H304     H        0.98630    0.01900    0.03720    1.000
    C333     C        0.59280    0.09280    0.41270    1.000
    C334     C        0.59540    0.07380    0.74300    1.000
    C335     C        0.86440    0.93880    0.72250    1.000
    C336     C        0.73150    0.01040    0.72680    1.000
    H305     H        0.72320    0.04260    0.74520    1.000
    H306     H        0.73100    0.06570    0.70460    1.000
    C337     C        0.00410    0.18210    0.05610    1.000
    H307     H        0.02550    0.17140    0.09620    1.000
    H308     H        0.99210    0.24990    0.05160    1.000
    C338     C        0.62690    0.09850    0.47050    1.000
    H309     H        0.65040    0.11310    0.48110    1.000
    C339     C        0.56270    0.03930    0.69140    1.000
    H310     H        0.54060    0.02880    0.68560    1.000
    C340     C        0.89560    0.98210    0.77490    1.000
    H311     H        0.91330    0.02520    0.77820    1.000
    C341     C        0.77210    0.97000    0.77180    1.000
    H312     H        0.78060    0.94060    0.75310    1.000
    H313     H        0.77210    0.91190    0.79240    1.000
    C342     C        0.01870    0.18630    0.02350    1.000
    H314     H        0.99690    0.18920    0.98310    1.000
    H315     H        0.03260    0.12070    0.03100    1.000
    C343     C        0.62300    0.08050    0.51150    1.000
    H316     H        0.64490    0.08690    0.54950    1.000
    C344     C        0.56280    0.01980    0.64710    1.000
    H317     H        0.54070    0.99350    0.61280    1.000
    C345     C        0.89940    0.95970    0.82070    1.000
    H318     H        0.91960    0.99210    0.85480    1.000
    C346     C        0.80030    0.05350    0.81370    1.000
    C347     C        0.04370    0.27950    0.03930    1.000
    C348     C        0.59200    0.11500    0.36650    1.000
    H319     H        0.56930    0.10720    0.32920    1.000
    C349     C        0.59370    0.09420    0.78810    1.000
    H320     H        0.57360    0.06940    0.78490    1.000
    C350     C        0.85790    0.96190    0.67050    1.000
    H321     H        0.83710    0.93090    0.63640    1.000
    C351     C        0.64620    0.19830    0.33510    1.000
    H322     H        0.66950    0.20400    0.37200    1.000
    C352     C        0.64400    0.21700    0.91630    1.000
    H323     H        0.66460    0.23990    0.92010    1.000
    C353     C        0.89460    0.08240    0.62110    1.000
    H324     H        0.91650    0.10770    0.65600    1.000
    C354     C        0.67350    0.28120    0.25080    1.000
    H325     H        0.69590    0.29980    0.25880    1.000
    C355     C        0.61390    0.77150    0.50290    1.000
    H326     H        0.59410    0.79790    0.50000    1.000
    C356     C        0.91680    0.86030    0.02720    1.000
    H327     H        0.93820    0.84440    0.03170    1.000
    C357     C        0.67550    0.25550    0.29750    1.000
    H328     H        0.69850    0.25920    0.33470    1.000
    C358     C        0.61380    0.79280    0.45870    1.000
    H329     H        0.59370    0.83080    0.42690    1.000
    C359     C        0.92100    0.87090    0.07460    1.000
    H330     H        0.94480    0.85940    0.11030    1.000
    C360     C        0.64300    0.22570    0.28600    1.000
    C361     C        0.64320    0.75810    0.46190    1.000
    C362     C        0.88980    0.89900    0.06960    1.000
    C363     C        0.60910    0.22110    0.22870    1.000
    H331     H        0.58660    0.19870    0.21960    1.000
    C364     C        0.67270    0.69900    0.50930    1.000
    H332     H        0.69300    0.67300    0.51310    1.000
    C365     C        0.85540    0.91290    0.01470    1.000
    H333     H        0.83380    0.93080    0.00910    1.000
    C366     C        0.60870    0.24960    0.18540    1.000
    H334     H        0.58580    0.24800    0.14800    1.000
    C367     C        0.67050    0.68120    0.55020    1.000
    H335     H        0.69040    0.64260    0.58200    1.000
    C368     C        0.85270    0.90140    0.97090    1.000
    H336     H        0.82910    0.91380    0.93520    1.000
    N85      N        0.59060    0.05540    0.50040    1.000
    N86      N        0.59290    0.03720    0.65190    1.000
    N87      N        0.87570    0.89220    0.82170    1.000
    N88      N        0.62180    0.14470    0.37590    1.000
    N89      N        0.62200    0.14880    0.83240    1.000
    N90      N        0.87990    0.02320    0.67140    1.000
    N91      N        0.61510    0.16510    0.32550    1.000
    N92      N        0.61710    0.16470    0.87230    1.000
    N93      N        0.86950    0.03270    0.61850    1.000
    N94      N        0.64110    0.27970    0.19660    1.000
    N95      N        0.64140    0.71510    0.54860    1.000
    N96      N        0.88250    0.87220    0.97380    1.000
    O57      O        0.63640    0.87850    0.61590    1.000
    O58      O        0.92190    0.01140    0.94340    1.000
    O59      O        0.65360    0.05020    0.63610    1.000
    O60      O        0.92490    0.19110    0.94960    1.000
    O61      O        0.83570    0.01970    0.85660    1.000
    O62      O        0.07980    0.26810    0.06750    1.000
    O63      O        0.70720    0.65250    0.69190    1.000
    O64      O        0.02960    0.37490    0.02590    1.000
