# CIF file generated by openbabel 3.1.0, see https://openbabel.org
data_I
_chemical_name_common 'image0'
_cell_length_a 17.49
_cell_length_b 11.94
_cell_length_c 18.46
_cell_angle_alpha 90
_cell_angle_beta 116.87
_cell_angle_gamma 90
_space_group_name_H-M_alt 'P 1'
_space_group_name_Hall 'P 1'
loop_
    _symmetry_equiv_pos_as_xyz
    x,y,z
loop_
    _atom_site_label
    _atom_site_type_symbol
    _atom_site_fract_x
    _atom_site_fract_y
    _atom_site_fract_z
    _atom_site_occupancy
    Mg1      Mg       0.28708    0.41796    0.02756    1.000
    Mg2      Mg       0.28782    0.94757    0.69956    1.000
    Mg3      Mg       0.83410    0.82095    0.11824    1.000
    O1       O        0.32084    0.38236    0.94021    1.000
    O2       O        0.30523    0.09463    0.65073    1.000
    O3       O        0.18511    0.52388    0.98268    1.000
    O4       O        0.18690    0.59469    0.09496    1.000
    O5       O        0.37298    0.20991    0.60880    1.000
    O6       O        0.79333    0.52092    0.75711    1.000
    O7       O        0.81334    0.71296    0.00971    1.000
    O8       O        0.62800    0.37740    0.83336    1.000
    O9       O        0.61487    0.46593    0.93328    1.000
    O10      O        0.28638    0.20502    0.90222    1.000
    O11      O        0.93735    0.78268    0.09400    1.000
    O12      O        0.88920    0.58318    0.71959    1.000
    C1       C        0.92120    0.59721    0.85843    1.000
    C2       C        0.15111    0.57296    0.02097    1.000
    C3       C        0.89257    0.72701    0.03188    1.000
    C4       C        0.86364    0.56365    0.77196    1.000
    C5       C        0.35660    0.17603    0.66372    1.000
    C6       C        0.05849    0.60630    0.97590    1.000
    C7       C        0.93325    0.67810    0.98290    1.000
    C8       C        0.58857    0.40301    0.87298    1.000
    C9       C        0.39302    0.23342    0.74356    1.000
    C10      C        0.50164    0.34983    0.84369    1.000
    C11      C        0.37721    0.29676    0.85957    1.000
    C12      C        0.32395    0.29537    0.90488    1.000
    C13      C        0.00828    0.57704    0.89500    1.000
    H1       H        0.03350    0.54380    0.86550    1.000
    C14      C        0.88428    0.64669    0.90318    1.000
    H2       H        0.82540    0.65890    0.87890    1.000
    C15      C        0.02067    0.65894    0.01854    1.000
    H3       H        0.05450    0.68170    0.07180    1.000
    C16      C        0.34881    0.23327    0.78974    1.000
    H4       H        0.29960    0.19000    0.77350    1.000
    C17      C        0.45323    0.35727    0.88609    1.000
    H5       H        0.47150    0.40240    0.93190    1.000
    C18      C        0.47000    0.28993    0.77187    1.000
    H6       H        0.50110    0.28770    0.74220    1.000
    Mg4      Mg       0.71292    0.91796    0.47244    1.000
    Mg5      Mg       0.71218    0.44757    0.80044    1.000
    Mg6      Mg       0.16590    0.32095    0.38176    1.000
    O13      O        0.67916    0.88236    0.55979    1.000
    O14      O        0.69477    0.59463    0.84927    1.000
    O15      O        0.81489    0.02388    0.51732    1.000
    O16      O        0.81310    0.09469    0.40504    1.000
    O17      O        0.62702    0.70991    0.89120    1.000
    O18      O        0.20667    0.02092    0.74289    1.000
    O19      O        0.18666    0.21296    0.49029    1.000
    O20      O        0.37200    0.87740    0.66664    1.000
    O21      O        0.38513    0.96593    0.56672    1.000
    O22      O        0.71362    0.70502    0.59778    1.000
    O23      O        0.06265    0.28268    0.40600    1.000
    O24      O        0.11080    0.08318    0.78041    1.000
    C19      C        0.07880    0.09721    0.64157    1.000
    C20      C        0.84889    0.07296    0.47903    1.000
    C21      C        0.10743    0.22701    0.46812    1.000
    C22      C        0.13636    0.06365    0.72804    1.000
    C23      C        0.64340    0.67603    0.83628    1.000
    C24      C        0.94151    0.10630    0.52410    1.000
    C25      C        0.06675    0.17810    0.51710    1.000
    C26      C        0.41143    0.90301    0.62702    1.000
    C27      C        0.60698    0.73342    0.75644    1.000
    C28      C        0.49836    0.84983    0.65631    1.000
    C29      C        0.62279    0.79676    0.64043    1.000
    C30      C        0.67605    0.79537    0.59512    1.000
    C31      C        0.99172    0.07704    0.60500    1.000
    H7       H        0.96650    0.04380    0.63450    1.000
    C32      C        0.11572    0.14669    0.59682    1.000
    H8       H        0.17460    0.15890    0.62110    1.000
    C33      C        0.97933    0.15894    0.48146    1.000
    H9       H        0.94550    0.18170    0.42820    1.000
    C34      C        0.65119    0.73327    0.71026    1.000
    H10      H        0.70040    0.69000    0.72650    1.000
    C35      C        0.54677    0.85727    0.61391    1.000
    H11      H        0.52850    0.90240    0.56810    1.000
    C36      C        0.53000    0.78993    0.72813    1.000
    H12      H        0.49890    0.78770    0.75780    1.000
    Mg7      Mg       0.71292    0.58204    0.97244    1.000
    Mg8      Mg       0.71218    0.05243    0.30044    1.000
    Mg9      Mg       0.16590    0.17905    0.88176    1.000
    O25      O        0.67916    0.61764    0.05979    1.000
    O26      O        0.69477    0.90537    0.34927    1.000
    O27      O        0.81489    0.47612    0.01732    1.000
    O28      O        0.81310    0.40531    0.90504    1.000
    O29      O        0.62702    0.79009    0.39120    1.000
    O30      O        0.20667    0.47908    0.24289    1.000
    O31      O        0.18666    0.28704    0.99029    1.000
    O32      O        0.37200    0.62260    0.16664    1.000
    O33      O        0.38513    0.53407    0.06672    1.000
    O34      O        0.71362    0.79498    0.09778    1.000
    O35      O        0.06265    0.21732    0.90600    1.000
    O36      O        0.11080    0.41682    0.28041    1.000
    C37      C        0.07880    0.40279    0.14157    1.000
    C38      C        0.84889    0.42704    0.97903    1.000
    C39      C        0.10743    0.27299    0.96812    1.000
    C40      C        0.13636    0.43635    0.22804    1.000
    C41      C        0.64340    0.82397    0.33628    1.000
    C42      C        0.94151    0.39370    0.02410    1.000
    C43      C        0.06675    0.32190    0.01710    1.000
    C44      C        0.41143    0.59699    0.12702    1.000
    C45      C        0.60698    0.76658    0.25644    1.000
    C46      C        0.49836    0.65017    0.15631    1.000
    C47      C        0.62279    0.70324    0.14043    1.000
    C48      C        0.67605    0.70463    0.09512    1.000
    C49      C        0.99172    0.42296    0.10500    1.000
    H13      H        0.96650    0.45620    0.13450    1.000
    C50      C        0.11572    0.35331    0.09682    1.000
    H14      H        0.17460    0.34110    0.12110    1.000
    C51      C        0.97933    0.34106    0.98146    1.000
    H15      H        0.94550    0.31830    0.92820    1.000
    C52      C        0.65119    0.76673    0.21026    1.000
    H16      H        0.70040    0.81000    0.22650    1.000
    C53      C        0.54677    0.64273    0.11391    1.000
    H17      H        0.52850    0.59760    0.06810    1.000
    C54      C        0.53000    0.71007    0.22813    1.000
    H18      H        0.49890    0.71230    0.25780    1.000
    Mg10     Mg       0.28708    0.08204    0.52756    1.000
    Mg11     Mg       0.28782    0.55243    0.19956    1.000
    Mg12     Mg       0.83410    0.67905    0.61824    1.000
    O37      O        0.32084    0.11764    0.44021    1.000
    O38      O        0.30523    0.40537    0.15073    1.000
    O39      O        0.18511    0.97612    0.48268    1.000
    O40      O        0.18690    0.90531    0.59496    1.000
    O41      O        0.37298    0.29009    0.10880    1.000
    O42      O        0.79333    0.97908    0.25711    1.000
    O43      O        0.81334    0.78704    0.50971    1.000
    O44      O        0.62800    0.12260    0.33336    1.000
    O45      O        0.61487    0.03407    0.43328    1.000
    O46      O        0.28638    0.29498    0.40222    1.000
    O47      O        0.93735    0.71732    0.59400    1.000
    O48      O        0.88920    0.91682    0.21959    1.000
    C55      C        0.92120    0.90279    0.35843    1.000
    C56      C        0.15111    0.92704    0.52097    1.000
    C57      C        0.89257    0.77299    0.53188    1.000
    C58      C        0.86364    0.93635    0.27196    1.000
    C59      C        0.35660    0.32397    0.16372    1.000
    C60      C        0.05849    0.89370    0.47590    1.000
    C61      C        0.93325    0.82190    0.48290    1.000
    C62      C        0.58857    0.09699    0.37298    1.000
    C63      C        0.39302    0.26658    0.24356    1.000
    C64      C        0.50164    0.15017    0.34369    1.000
    C65      C        0.37721    0.20324    0.35957    1.000
    C66      C        0.32395    0.20463    0.40488    1.000
    C67      C        0.00828    0.92296    0.39500    1.000
    H19      H        0.03350    0.95620    0.36550    1.000
    C68      C        0.88428    0.85331    0.40318    1.000
    H20      H        0.82540    0.84110    0.37890    1.000
    C69      C        0.02067    0.84106    0.51854    1.000
    H21      H        0.05450    0.81830    0.57180    1.000
    C70      C        0.34881    0.26673    0.28974    1.000
    H22      H        0.29960    0.31000    0.27350    1.000
    C71      C        0.45323    0.14273    0.38609    1.000
    H23      H        0.47150    0.09760    0.43190    1.000
    C72      C        0.47000    0.21007    0.27187    1.000
    H24      H        0.50110    0.21230    0.24220    1.000
