# CIF file generated by openbabel 3.1.0, see https://openbabel.org
data_I
_chemical_name_common 'image0'
_cell_length_a 33.41
_cell_length_b 26.932
_cell_length_c 12.365
_cell_angle_alpha 90
_cell_angle_beta 91.533
_cell_angle_gamma 90
_space_group_name_H-M_alt 'P 1'
_space_group_name_Hall 'P 1'
loop_
    _symmetry_equiv_pos_as_xyz
    x,y,z
loop_
    _atom_site_label
    _atom_site_type_symbol
    _atom_site_fract_x
    _atom_site_fract_y
    _atom_site_fract_z
    _atom_site_occupancy
    Ag1      Ag       0.63857    0.28053    0.22189    1.000
    Ag2      Ag       0.14268    0.27752    0.74792    1.000
    Co1      Co       0.38671    0.43014    0.46820    1.000
    Co2      Co       0.88616    0.43224    0.51814    1.000
    C1       C        0.45542    0.46950    0.59360    1.000
    H1       H        0.43900    0.49190    0.63180    1.000
    C2       C        0.49633    0.46540    0.60980    1.000
    H2       H        0.51230    0.48390    0.66020    1.000
    C3       C        0.50974    0.42990    0.53990    1.000
    H3       H        0.53650    0.41880    0.53280    1.000
    C4       C        0.47491    0.41300    0.47970    1.000
    C5       C        0.47230    0.37380    0.40490    1.000
    C6       C        0.43742    0.35390    0.35930    1.000
    C7       C        0.43300    0.31280    0.28770    1.000
    H4       H        0.45400    0.29400    0.25710    1.000
    C8       C        0.39330    0.30570    0.27150    1.000
    H5       H        0.38070    0.28050    0.22910    1.000
    C9       C        0.37380    0.34420    0.33190    1.000
    H6       H        0.34560    0.34850    0.33370    1.000
    C10      C        0.51070    0.35320    0.36500    1.000
    C11      C        0.52202    0.30380    0.38770    1.000
    H7       H        0.50580    0.28320    0.43090    1.000
    C12      C        0.55729    0.28590    0.34560    1.000
    H8       H        0.56480    0.25250    0.36060    1.000
    C13      C        0.53667    0.38180    0.30430    1.000
    H9       H        0.53070    0.41560    0.28840    1.000
    C14      C        0.57100    0.36020    0.26790    1.000
    H10      H        0.58880    0.38000    0.22750    1.000
    C15      C        0.64330    0.98340    0.84210    1.000
    H11      H        0.64420    0.95370    0.80090    1.000
    C16      C        0.65640    0.03010    0.80340    1.000
    H12      H        0.66560    0.03750    0.73320    1.000
    C17      C        0.65270    0.06240    0.88880    1.000
    H13      H        0.65980    0.09650    0.89010    1.000
    C18      C        0.63600    0.03430    0.97610    1.000
    C19      C        0.62550    0.05150    0.07700    1.000
    C20      C        0.60867    0.02480    0.15670    1.000
    C21      C        0.59770    0.04140    0.26410    1.000
    H14      H        0.60070    0.07390    0.29290    1.000
    C22      C        0.58220    0.00020    0.31590    1.000
    H15      H        0.57150    0.99930    0.38630    1.000
    C23      C        0.58530    0.96110    0.24550    1.000
    H16      H        0.57710    0.92840    0.26280    1.000
    C24      C        0.63350    0.10530    0.10160    1.000
    C25      C        0.66170    0.12080    0.17640    1.000
    H17      H        0.67810    0.09680    0.21220    1.000
    C26      C        0.66700    0.17020    0.20130    1.000
    H18      H        0.68650    0.17930    0.25470    1.000
    C27      C        0.61260    0.14290    0.04440    1.000
    H19      H        0.59470    0.13450    0.98630    1.000
    C28      C        0.61820    0.19180    0.07240    1.000
    H20      H        0.60300    0.21660    0.03560    1.000
    C29      C        0.31650    0.44850    0.32560    1.000
    H21      H        0.33200    0.46530    0.27380    1.000
    C30      C        0.27410    0.44230    0.31620    1.000
    H22      H        0.25690    0.45390    0.25940    1.000
    C31      C        0.26320    0.41540    0.40820    1.000
    H23      H        0.23700    0.40560    0.42700    1.000
    C32      C        0.29985    0.40580    0.46770    1.000
    C33      C        0.30385    0.37740    0.56100    1.000
    C34      C        0.34062    0.36580    0.61300    1.000
    C35      C        0.34680    0.33500    0.70660    1.000
    H24      H        0.32680    0.31860    0.74630    1.000
    C36      C        0.38680    0.33380    0.72730    1.000
    H25      H        0.40040    0.31550    0.78270    1.000
    C37      C        0.40448    0.36510    0.65100    1.000
    H26      H        0.43240    0.37140    0.64720    1.000
    C38      C        0.26684    0.35410    0.60530    1.000
    C39      C        0.25390    0.36790    0.70490    1.000
    H27      H        0.26770    0.39240    0.74680    1.000
    C40      C        0.21960    0.34470    0.74240    1.000
    H28      H        0.21090    0.35340    0.81240    1.000
    C41      C        0.24510    0.31920    0.54380    1.000
    H29      H        0.25290    0.31050    0.47290    1.000
    C42      C        0.21187    0.29760    0.58960    1.000
    H30      H        0.19830    0.27200    0.55030    1.000
    C43      C        0.91898    0.45540    0.73750    1.000
    H31      H        0.92770    0.42230    0.74940    1.000
    C44      C        0.92240    0.49330    0.81280    1.000
    H32      H        0.93400    0.49080    0.88350    1.000
    C45      C        0.90590    0.53540    0.76590    1.000
    H33      H        0.90330    0.56710    0.79880    1.000
    C46      C        0.89332    0.52190    0.65810    1.000
    C47      C        0.87500    0.55230    0.58160    1.000
    C48      C        0.86339    0.53800    0.47670    1.000
    C49      C        0.84553    0.56820    0.39450    1.000
    H34      H        0.83920    0.60250    0.39960    1.000
    C50      C        0.83934    0.53840    0.30730    1.000
    H35      H        0.82710    0.54770    0.24010    1.000
    C51      C        0.85427    0.49170    0.33450    1.000
    H36      H        0.85420    0.46410    0.28680    1.000
    C52      C        0.86706    0.60460    0.61460    1.000
    C53      C        0.84020    0.61650    0.69090    1.000
    H37      H        0.82480    0.59170    0.72530    1.000
    C54      C        0.83602    0.66700    0.71710    1.000
    H38      H        0.81750    0.67500    0.77130    1.000
    C55      C        0.88860    0.64340    0.56400    1.000
    H39      H        0.90750    0.63660    0.51000    1.000
    C56      C        0.88059    0.69170    0.59730    1.000
    H40      H        0.89420    0.71820    0.56330    1.000
    C57      C        0.89815    0.37050    0.32720    1.000
    H41      H        0.92630    0.37540    0.33030    1.000
    C58      C        0.87720    0.34100    0.24850    1.000
    H42      H        0.88860    0.32310    0.19060    1.000
    C59      C        0.83770    0.34370    0.27290    1.000
    H43      H        0.81640    0.32700    0.23610    1.000
    C60      C        0.83414    0.37510    0.36070    1.000
    C61      C        0.79965    0.38730    0.41800    1.000
    C62      C        0.79808    0.41150    0.51440    1.000
    C63      C        0.76380    0.42210    0.57840    1.000
    H44      H        0.73670    0.41550    0.55860    1.000
    C64      C        0.77730    0.44350    0.67310    1.000
    H45      H        0.76160    0.45390    0.73180    1.000
    C65      C        0.81916    0.44690    0.66600    1.000
    H46      H        0.83620    0.46000    0.72180    1.000
    C66      C        0.76139    0.36740    0.37080    1.000
    C67      C        0.74080    0.33080    0.42700    1.000
    H47      H        0.75050    0.31960    0.49570    1.000
    C68      C        0.70591    0.31090    0.38080    1.000
    H48      H        0.69170    0.28680    0.42060    1.000
    C69      C        0.74589    0.38270    0.27050    1.000
    H49      H        0.75880    0.40760    0.22990    1.000
    C70      C        0.71092    0.36020    0.23160    1.000
    H50      H        0.70000    0.37090    0.16380    1.000
    C71      C        0.95265    0.47230    0.39500    1.000
    H51      H        0.93550    0.49500    0.35740    1.000
    C72      C        0.99447    0.46860    0.37880    1.000
    H52      H        0.00980    0.48720    0.32920    1.000
    C73      C        0.00794    0.43360    0.44770    1.000
    H53      H        0.03500    0.42330    0.45730    1.000
    C74      C        0.97424    0.41450    0.50470    1.000
    C75      C        0.97292    0.37410    0.57400    1.000
    C76      C        0.93865    0.35280    0.61520    1.000
    C77      C        0.93470    0.30940    0.68100    1.000
    H54      H        0.95590    0.28910    0.70820    1.000
    C78      C        0.89550    0.30270    0.69740    1.000
    H55      H        0.88380    0.27640    0.73660    1.000
    C79      C        0.87490    0.34250    0.64490    1.000
    H56      H        0.84670    0.34760    0.64550    1.000
    C80      C        0.01194    0.35100    0.61410    1.000
    C81      C        0.03889    0.37940    0.67580    1.000
    H57      H        0.03330    0.41310    0.69220    1.000
    C82      C        0.07433    0.35700    0.71290    1.000
    H58      H        0.09240    0.37610    0.75660    1.000
    C83      C        0.02269    0.30310    0.58410    1.000
    H59      H        0.00610    0.28380    0.53660    1.000
    C84      C        0.05832    0.28460    0.62610    1.000
    H60      H        0.06520    0.25140    0.60860    1.000
    N1       N        0.44178    0.43805    0.51770    1.000
    N2       N        0.39932    0.37201    0.38310    1.000
    N3       N        0.58077    0.31298    0.28600    1.000
    N4       N        0.62976    0.98561    0.94270    1.000
    N5       N        0.60098    0.97309    0.15040    1.000
    N6       N        0.64514    0.20574    0.15180    1.000
    N7       N        0.33188    0.42754    0.41730    1.000
    N8       N        0.37661    0.38450    0.58460    1.000
    N9       N        0.19802    0.31060    0.68530    1.000
    N10      N        0.90142    0.47210    0.64460    1.000
    N11      N        0.86862    0.49070    0.43590    1.000
    N12      N        0.85470    0.70295    0.67500    1.000
    N13      N        0.87263    0.39013    0.39560    1.000
    N14      N        0.83204    0.42990    0.57300    1.000
    N15      N        0.69155    0.32393    0.28480    1.000
    N16      N        0.94018    0.44034    0.46860    1.000
    N17      N        0.90054    0.37131    0.59520    1.000
    N18      N        0.08414    0.31072    0.69050    1.000
    Ag3      Ag       0.36143    0.78053    0.27811    1.000
    Ag4      Ag       0.85732    0.77752    0.75208    1.000
    Co3      Co       0.61329    0.93014    0.03180    1.000
    Co4      Co       0.11384    0.93224    0.98186    1.000
    C85      C        0.54458    0.96950    0.90640    1.000
    H61      H        0.56100    0.99190    0.86820    1.000
    C86      C        0.50367    0.96540    0.89020    1.000
    H62      H        0.48770    0.98390    0.83980    1.000
    C87      C        0.49026    0.92990    0.96010    1.000
    H63      H        0.46350    0.91880    0.96720    1.000
    C88      C        0.52509    0.91300    0.02030    1.000
    C89      C        0.52770    0.87380    0.09510    1.000
    C90      C        0.56258    0.85390    0.14070    1.000
    C91      C        0.56700    0.81280    0.21230    1.000
    H64      H        0.54600    0.79400    0.24290    1.000
    C92      C        0.60670    0.80570    0.22850    1.000
    H65      H        0.61930    0.78050    0.27090    1.000
    C93      C        0.62620    0.84420    0.16810    1.000
    H66      H        0.65440    0.84850    0.16630    1.000
    C94      C        0.48930    0.85320    0.13500    1.000
    C95      C        0.47798    0.80380    0.11230    1.000
    H67      H        0.49420    0.78320    0.06910    1.000
    C96      C        0.44271    0.78590    0.15440    1.000
    H68      H        0.43520    0.75250    0.13940    1.000
    C97      C        0.46333    0.88180    0.19570    1.000
    H69      H        0.46930    0.91560    0.21160    1.000
    C98      C        0.42900    0.86020    0.23210    1.000
    H70      H        0.41120    0.88000    0.27250    1.000
    C99      C        0.35670    0.48340    0.65790    1.000
    H71      H        0.35580    0.45370    0.69910    1.000
    C100     C        0.34360    0.53010    0.69660    1.000
    H72      H        0.33440    0.53750    0.76680    1.000
    C101     C        0.34730    0.56240    0.61120    1.000
    H73      H        0.34020    0.59650    0.60990    1.000
    C102     C        0.36400    0.53430    0.52390    1.000
    C103     C        0.37450    0.55150    0.42300    1.000
    C104     C        0.39133    0.52480    0.34330    1.000
    C105     C        0.40230    0.54140    0.23590    1.000
    H74      H        0.39930    0.57390    0.20710    1.000
    C106     C        0.41780    0.50020    0.18410    1.000
    H75      H        0.42850    0.49930    0.11370    1.000
    C107     C        0.41470    0.46110    0.25450    1.000
    H76      H        0.42290    0.42840    0.23720    1.000
    C108     C        0.36650    0.60530    0.39840    1.000
    C109     C        0.33830    0.62080    0.32360    1.000
    H77      H        0.32190    0.59680    0.28780    1.000
    C110     C        0.33300    0.67020    0.29870    1.000
    H78      H        0.31350    0.67930    0.24530    1.000
    C111     C        0.38740    0.64290    0.45560    1.000
    H79      H        0.40530    0.63450    0.51370    1.000
    C112     C        0.38180    0.69180    0.42760    1.000
    H80      H        0.39700    0.71660    0.46440    1.000
    C113     C        0.68350    0.94850    0.17440    1.000
    H81      H        0.66800    0.96530    0.22620    1.000
    C114     C        0.72590    0.94230    0.18380    1.000
    H82      H        0.74310    0.95390    0.24060    1.000
    C115     C        0.73680    0.91540    0.09180    1.000
    H83      H        0.76300    0.90560    0.07300    1.000
    C116     C        0.70015    0.90580    0.03230    1.000
    C117     C        0.69615    0.87740    0.93900    1.000
    C118     C        0.65938    0.86580    0.88700    1.000
    C119     C        0.65320    0.83500    0.79340    1.000
    H84      H        0.67320    0.81860    0.75370    1.000
    C120     C        0.61320    0.83380    0.77270    1.000
    H85      H        0.59960    0.81550    0.71730    1.000
    C121     C        0.59552    0.86510    0.84900    1.000
    H86      H        0.56760    0.87140    0.85280    1.000
    C122     C        0.73316    0.85410    0.89470    1.000
    C123     C        0.74610    0.86790    0.79510    1.000
    H87      H        0.73230    0.89240    0.75320    1.000
    C124     C        0.78040    0.84470    0.75760    1.000
    H88      H        0.78910    0.85340    0.68760    1.000
    C125     C        0.75490    0.81920    0.95620    1.000
    H89      H        0.74710    0.81050    0.02710    1.000
    C126     C        0.78813    0.79760    0.91040    1.000
    H90      H        0.80170    0.77200    0.94970    1.000
    C127     C        0.08102    0.95540    0.76250    1.000
    H91      H        0.07230    0.92230    0.75060    1.000
    C128     C        0.07760    0.99330    0.68720    1.000
    H92      H        0.06600    0.99080    0.61650    1.000
    C129     C        0.09410    0.03540    0.73410    1.000
    H93      H        0.09670    0.06710    0.70120    1.000
    C130     C        0.10668    0.02190    0.84190    1.000
    C131     C        0.12500    0.05230    0.91840    1.000
    C132     C        0.13661    0.03800    0.02330    1.000
    C133     C        0.15447    0.06820    0.10550    1.000
    H94      H        0.16080    0.10250    0.10040    1.000
    C134     C        0.16066    0.03840    0.19270    1.000
    H95      H        0.17290    0.04770    0.25990    1.000
    C135     C        0.14573    0.99170    0.16550    1.000
    H96      H        0.14580    0.96410    0.21320    1.000
    C136     C        0.13294    0.10460    0.88540    1.000
    C137     C        0.15980    0.11650    0.80910    1.000
    H97      H        0.17520    0.09170    0.77470    1.000
    C138     C        0.16398    0.16700    0.78290    1.000
    H98      H        0.18250    0.17500    0.72870    1.000
    C139     C        0.11140    0.14340    0.93600    1.000
    H99      H        0.09250    0.13660    0.99000    1.000
    C140     C        0.11941    0.19170    0.90270    1.000
    H100     H        0.10580    0.21820    0.93670    1.000
    C141     C        0.10185    0.87050    0.17280    1.000
    H101     H        0.07370    0.87540    0.16970    1.000
    C142     C        0.12280    0.84100    0.25150    1.000
    H102     H        0.11140    0.82310    0.30940    1.000
    C143     C        0.16230    0.84370    0.22710    1.000
    H103     H        0.18360    0.82700    0.26390    1.000
    C144     C        0.16586    0.87510    0.13930    1.000
    C145     C        0.20035    0.88730    0.08200    1.000
    C146     C        0.20192    0.91150    0.98560    1.000
    C147     C        0.23620    0.92210    0.92160    1.000
    H104     H        0.26330    0.91550    0.94140    1.000
    C148     C        0.22270    0.94350    0.82690    1.000
    H105     H        0.23840    0.95390    0.76820    1.000
    C149     C        0.18084    0.94690    0.83400    1.000
    H106     H        0.16380    0.96000    0.77820    1.000
    C150     C        0.23861    0.86740    0.12920    1.000
    C151     C        0.25920    0.83080    0.07300    1.000
    H107     H        0.24950    0.81960    0.00430    1.000
    C152     C        0.29409    0.81090    0.11920    1.000
    H108     H        0.30830    0.78680    0.07940    1.000
    C153     C        0.25411    0.88270    0.22950    1.000
    H109     H        0.24120    0.90760    0.27010    1.000
    C154     C        0.28908    0.86020    0.26840    1.000
    H110     H        0.30000    0.87090    0.33620    1.000
    C155     C        0.04735    0.97230    0.10500    1.000
    H111     H        0.06450    0.99500    0.14260    1.000
    C156     C        0.00553    0.96860    0.12120    1.000
    H112     H        0.99020    0.98720    0.17080    1.000
    C157     C        0.99206    0.93360    0.05230    1.000
    H113     H        0.96500    0.92330    0.04270    1.000
    C158     C        0.02576    0.91450    0.99530    1.000
    C159     C        0.02708    0.87410    0.92600    1.000
    C160     C        0.06135    0.85280    0.88480    1.000
    C161     C        0.06530    0.80940    0.81900    1.000
    H114     H        0.04410    0.78910    0.79180    1.000
    C162     C        0.10450    0.80270    0.80260    1.000
    H115     H        0.11620    0.77640    0.76340    1.000
    C163     C        0.12510    0.84250    0.85510    1.000
    H116     H        0.15330    0.84760    0.85450    1.000
    C164     C        0.98806    0.85100    0.88590    1.000
    C165     C        0.96111    0.87940    0.82420    1.000
    H117     H        0.96670    0.91310    0.80780    1.000
    C166     C        0.92567    0.85700    0.78710    1.000
    H118     H        0.90760    0.87610    0.74340    1.000
    C167     C        0.97731    0.80310    0.91590    1.000
    H119     H        0.99390    0.78380    0.96340    1.000
    C168     C        0.94168    0.78460    0.87390    1.000
    H120     H        0.93480    0.75140    0.89140    1.000
    N19      N        0.55822    0.93805    0.98230    1.000
    N20      N        0.60068    0.87201    0.11690    1.000
    N21      N        0.41923    0.81298    0.21400    1.000
    N22      N        0.37024    0.48561    0.55730    1.000
    N23      N        0.39902    0.47309    0.34960    1.000
    N24      N        0.35486    0.70574    0.34820    1.000
    N25      N        0.66812    0.92754    0.08270    1.000
    N26      N        0.62339    0.88450    0.91540    1.000
    N27      N        0.80198    0.81060    0.81470    1.000
    N28      N        0.09858    0.97210    0.85540    1.000
    N29      N        0.13138    0.99070    0.06410    1.000
    N30      N        0.14530    0.20295    0.82500    1.000
    N31      N        0.12737    0.89013    0.10440    1.000
    N32      N        0.16796    0.92990    0.92700    1.000
    N33      N        0.30845    0.82393    0.21520    1.000
    N34      N        0.05982    0.94034    0.03140    1.000
    N35      N        0.09946    0.87131    0.90480    1.000
    N36      N        0.91586    0.81072    0.80950    1.000
    Ag5      Ag       0.36143    0.71947    0.77811    1.000
    Ag6      Ag       0.85732    0.72248    0.25208    1.000
    Co5      Co       0.61329    0.56986    0.53180    1.000
    Co6      Co       0.11384    0.56776    0.48186    1.000
    C169     C        0.54458    0.53050    0.40640    1.000
    H121     H        0.56100    0.50810    0.36820    1.000
    C170     C        0.50367    0.53460    0.39020    1.000
    H122     H        0.48770    0.51610    0.33980    1.000
    C171     C        0.49026    0.57010    0.46010    1.000
    H123     H        0.46350    0.58120    0.46720    1.000
    C172     C        0.52509    0.58700    0.52030    1.000
    C173     C        0.52770    0.62620    0.59510    1.000
    C174     C        0.56258    0.64610    0.64070    1.000
    C175     C        0.56700    0.68720    0.71230    1.000
    H124     H        0.54600    0.70600    0.74290    1.000
    C176     C        0.60670    0.69430    0.72850    1.000
    H125     H        0.61930    0.71950    0.77090    1.000
    C177     C        0.62620    0.65580    0.66810    1.000
    H126     H        0.65440    0.65150    0.66630    1.000
    C178     C        0.48930    0.64680    0.63500    1.000
    C179     C        0.47798    0.69620    0.61230    1.000
    H127     H        0.49420    0.71680    0.56910    1.000
    C180     C        0.44271    0.71410    0.65440    1.000
    H128     H        0.43520    0.74750    0.63940    1.000
    C181     C        0.46333    0.61820    0.69570    1.000
    H129     H        0.46930    0.58440    0.71160    1.000
    C182     C        0.42900    0.63980    0.73210    1.000
    H130     H        0.41120    0.62000    0.77250    1.000
    C183     C        0.35670    0.01660    0.15790    1.000
    H131     H        0.35580    0.04630    0.19910    1.000
    C184     C        0.34360    0.96990    0.19660    1.000
    H132     H        0.33440    0.96250    0.26680    1.000
    C185     C        0.34730    0.93760    0.11120    1.000
    H133     H        0.34020    0.90350    0.10990    1.000
    C186     C        0.36400    0.96570    0.02390    1.000
    C187     C        0.37450    0.94850    0.92300    1.000
    C188     C        0.39133    0.97520    0.84330    1.000
    C189     C        0.40230    0.95860    0.73590    1.000
    H134     H        0.39930    0.92610    0.70710    1.000
    C190     C        0.41780    0.99980    0.68410    1.000
    H135     H        0.42850    0.00070    0.61370    1.000
    C191     C        0.41470    0.03890    0.75450    1.000
    H136     H        0.42290    0.07160    0.73720    1.000
    C192     C        0.36650    0.89470    0.89840    1.000
    C193     C        0.33830    0.87920    0.82360    1.000
    H137     H        0.32190    0.90320    0.78780    1.000
    C194     C        0.33300    0.82980    0.79870    1.000
    H138     H        0.31350    0.82070    0.74530    1.000
    C195     C        0.38740    0.85710    0.95560    1.000
    H139     H        0.40530    0.86550    0.01370    1.000
    C196     C        0.38180    0.80820    0.92760    1.000
    H140     H        0.39700    0.78340    0.96440    1.000
    C197     C        0.68350    0.55150    0.67440    1.000
    H141     H        0.66800    0.53470    0.72620    1.000
    C198     C        0.72590    0.55770    0.68380    1.000
    H142     H        0.74310    0.54610    0.74060    1.000
    C199     C        0.73680    0.58460    0.59180    1.000
    H143     H        0.76300    0.59440    0.57300    1.000
    C200     C        0.70015    0.59420    0.53230    1.000
    C201     C        0.69615    0.62260    0.43900    1.000
    C202     C        0.65938    0.63420    0.38700    1.000
    C203     C        0.65320    0.66500    0.29340    1.000
    H144     H        0.67320    0.68140    0.25370    1.000
    C204     C        0.61320    0.66620    0.27270    1.000
    H145     H        0.59960    0.68450    0.21730    1.000
    C205     C        0.59552    0.63490    0.34900    1.000
    H146     H        0.56760    0.62860    0.35280    1.000
    C206     C        0.73316    0.64590    0.39470    1.000
    C207     C        0.74610    0.63210    0.29510    1.000
    H147     H        0.73230    0.60760    0.25320    1.000
    C208     C        0.78040    0.65530    0.25760    1.000
    H148     H        0.78910    0.64660    0.18760    1.000
    C209     C        0.75490    0.68080    0.45620    1.000
    H149     H        0.74710    0.68950    0.52710    1.000
    C210     C        0.78813    0.70240    0.41040    1.000
    H150     H        0.80170    0.72800    0.44970    1.000
    C211     C        0.08102    0.54460    0.26250    1.000
    H151     H        0.07230    0.57770    0.25060    1.000
    C212     C        0.07760    0.50670    0.18720    1.000
    H152     H        0.06600    0.50920    0.11650    1.000
    C213     C        0.09410    0.46460    0.23410    1.000
    H153     H        0.09670    0.43290    0.20120    1.000
    C214     C        0.10668    0.47810    0.34190    1.000
    C215     C        0.12500    0.44770    0.41840    1.000
    C216     C        0.13661    0.46200    0.52330    1.000
    C217     C        0.15447    0.43180    0.60550    1.000
    H154     H        0.16080    0.39750    0.60040    1.000
    C218     C        0.16066    0.46160    0.69270    1.000
    H155     H        0.17290    0.45230    0.75990    1.000
    C219     C        0.14573    0.50830    0.66550    1.000
    H156     H        0.14580    0.53590    0.71320    1.000
    C220     C        0.13294    0.39540    0.38540    1.000
    C221     C        0.15980    0.38350    0.30910    1.000
    H157     H        0.17520    0.40830    0.27470    1.000
    C222     C        0.16398    0.33300    0.28290    1.000
    H158     H        0.18250    0.32500    0.22870    1.000
    C223     C        0.11140    0.35660    0.43600    1.000
    H159     H        0.09250    0.36340    0.49000    1.000
    C224     C        0.11941    0.30830    0.40270    1.000
    H160     H        0.10580    0.28180    0.43670    1.000
    C225     C        0.10185    0.62950    0.67280    1.000
    H161     H        0.07370    0.62460    0.66970    1.000
    C226     C        0.12280    0.65900    0.75150    1.000
    H162     H        0.11140    0.67690    0.80940    1.000
    C227     C        0.16230    0.65630    0.72710    1.000
    H163     H        0.18360    0.67300    0.76390    1.000
    C228     C        0.16586    0.62490    0.63930    1.000
    C229     C        0.20035    0.61270    0.58200    1.000
    C230     C        0.20192    0.58850    0.48560    1.000
    C231     C        0.23620    0.57790    0.42160    1.000
    H164     H        0.26330    0.58450    0.44140    1.000
    C232     C        0.22270    0.55650    0.32690    1.000
    H165     H        0.23840    0.54610    0.26820    1.000
    C233     C        0.18084    0.55310    0.33400    1.000
    H166     H        0.16380    0.54000    0.27820    1.000
    C234     C        0.23861    0.63260    0.62920    1.000
    C235     C        0.25920    0.66920    0.57300    1.000
    H167     H        0.24950    0.68040    0.50430    1.000
    C236     C        0.29409    0.68910    0.61920    1.000
    H168     H        0.30830    0.71320    0.57940    1.000
    C237     C        0.25411    0.61730    0.72950    1.000
    H169     H        0.24120    0.59240    0.77010    1.000
    C238     C        0.28908    0.63980    0.76840    1.000
    H170     H        0.30000    0.62910    0.83620    1.000
    C239     C        0.04735    0.52770    0.60500    1.000
    H171     H        0.06450    0.50500    0.64260    1.000
    C240     C        0.00553    0.53140    0.62120    1.000
    H172     H        0.99020    0.51280    0.67080    1.000
    C241     C        0.99206    0.56640    0.55230    1.000
    H173     H        0.96500    0.57670    0.54270    1.000
    C242     C        0.02576    0.58550    0.49530    1.000
    C243     C        0.02708    0.62590    0.42600    1.000
    C244     C        0.06135    0.64720    0.38480    1.000
    C245     C        0.06530    0.69060    0.31900    1.000
    H174     H        0.04410    0.71090    0.29180    1.000
    C246     C        0.10450    0.69730    0.30260    1.000
    H175     H        0.11620    0.72360    0.26340    1.000
    C247     C        0.12510    0.65750    0.35510    1.000
    H176     H        0.15330    0.65240    0.35450    1.000
    C248     C        0.98806    0.64900    0.38590    1.000
    C249     C        0.96111    0.62060    0.32420    1.000
    H177     H        0.96670    0.58690    0.30780    1.000
    C250     C        0.92567    0.64300    0.28710    1.000
    H178     H        0.90760    0.62390    0.24340    1.000
    C251     C        0.97731    0.69690    0.41590    1.000
    H179     H        0.99390    0.71620    0.46340    1.000
    C252     C        0.94168    0.71540    0.37390    1.000
    H180     H        0.93480    0.74860    0.39140    1.000
    N37      N        0.55822    0.56195    0.48230    1.000
    N38      N        0.60068    0.62799    0.61690    1.000
    N39      N        0.41923    0.68702    0.71400    1.000
    N40      N        0.37024    0.01439    0.05730    1.000
    N41      N        0.39902    0.02691    0.84960    1.000
    N42      N        0.35486    0.79426    0.84820    1.000
    N43      N        0.66812    0.57246    0.58270    1.000
    N44      N        0.62339    0.61550    0.41540    1.000
    N45      N        0.80198    0.68940    0.31470    1.000
    N46      N        0.09858    0.52790    0.35540    1.000
    N47      N        0.13138    0.50930    0.56410    1.000
    N48      N        0.14530    0.29705    0.32500    1.000
    N49      N        0.12737    0.60987    0.60440    1.000
    N50      N        0.16796    0.57010    0.42700    1.000
    N51      N        0.30845    0.67607    0.71520    1.000
    N52      N        0.05982    0.55966    0.53140    1.000
    N53      N        0.09946    0.62869    0.40480    1.000
    N54      N        0.91586    0.68928    0.30950    1.000
    Ag7      Ag       0.63857    0.21947    0.72189    1.000
    Ag8      Ag       0.14268    0.22248    0.24792    1.000
    Co7      Co       0.38671    0.06986    0.96820    1.000
    Co8      Co       0.88616    0.06776    0.01814    1.000
    C253     C        0.45542    0.03050    0.09360    1.000
    H181     H        0.43900    0.00810    0.13180    1.000
    C254     C        0.49633    0.03460    0.10980    1.000
    H182     H        0.51230    0.01610    0.16020    1.000
    C255     C        0.50974    0.07010    0.03990    1.000
    H183     H        0.53650    0.08120    0.03280    1.000
    C256     C        0.47491    0.08700    0.97970    1.000
    C257     C        0.47230    0.12620    0.90490    1.000
    C258     C        0.43742    0.14610    0.85930    1.000
    C259     C        0.43300    0.18720    0.78770    1.000
    H184     H        0.45400    0.20600    0.75710    1.000
    C260     C        0.39330    0.19430    0.77150    1.000
    H185     H        0.38070    0.21950    0.72910    1.000
    C261     C        0.37380    0.15580    0.83190    1.000
    H186     H        0.34560    0.15150    0.83370    1.000
    C262     C        0.51070    0.14680    0.86500    1.000
    C263     C        0.52202    0.19620    0.88770    1.000
    H187     H        0.50580    0.21680    0.93090    1.000
    C264     C        0.55729    0.21410    0.84560    1.000
    H188     H        0.56480    0.24750    0.86060    1.000
    C265     C        0.53667    0.11820    0.80430    1.000
    H189     H        0.53070    0.08440    0.78840    1.000
    C266     C        0.57100    0.13980    0.76790    1.000
    H190     H        0.58880    0.12000    0.72750    1.000
    C267     C        0.64330    0.51660    0.34210    1.000
    H191     H        0.64420    0.54630    0.30090    1.000
    C268     C        0.65640    0.46990    0.30340    1.000
    H192     H        0.66560    0.46250    0.23320    1.000
    C269     C        0.65270    0.43760    0.38880    1.000
    H193     H        0.65980    0.40350    0.39010    1.000
    C270     C        0.63600    0.46570    0.47610    1.000
    C271     C        0.62550    0.44850    0.57700    1.000
    C272     C        0.60867    0.47520    0.65670    1.000
    C273     C        0.59770    0.45860    0.76410    1.000
    H194     H        0.60070    0.42610    0.79290    1.000
    C274     C        0.58220    0.49980    0.81590    1.000
    H195     H        0.57150    0.50070    0.88630    1.000
    C275     C        0.58530    0.53890    0.74550    1.000
    H196     H        0.57710    0.57160    0.76280    1.000
    C276     C        0.63350    0.39470    0.60160    1.000
    C277     C        0.66170    0.37920    0.67640    1.000
    H197     H        0.67810    0.40320    0.71220    1.000
    C278     C        0.66700    0.32980    0.70130    1.000
    H198     H        0.68650    0.32070    0.75470    1.000
    C279     C        0.61260    0.35710    0.54440    1.000
    H199     H        0.59470    0.36550    0.48630    1.000
    C280     C        0.61820    0.30820    0.57240    1.000
    H200     H        0.60300    0.28340    0.53560    1.000
    C281     C        0.31650    0.05150    0.82560    1.000
    H201     H        0.33200    0.03470    0.77380    1.000
    C282     C        0.27410    0.05770    0.81620    1.000
    H202     H        0.25690    0.04610    0.75940    1.000
    C283     C        0.26320    0.08460    0.90820    1.000
    H203     H        0.23700    0.09440    0.92700    1.000
    C284     C        0.29985    0.09420    0.96770    1.000
    C285     C        0.30385    0.12260    0.06100    1.000
    C286     C        0.34062    0.13420    0.11300    1.000
    C287     C        0.34680    0.16500    0.20660    1.000
    H204     H        0.32680    0.18140    0.24630    1.000
    C288     C        0.38680    0.16620    0.22730    1.000
    H205     H        0.40040    0.18450    0.28270    1.000
    C289     C        0.40448    0.13490    0.15100    1.000
    H206     H        0.43240    0.12860    0.14720    1.000
    C290     C        0.26684    0.14590    0.10530    1.000
    C291     C        0.25390    0.13210    0.20490    1.000
    H207     H        0.26770    0.10760    0.24680    1.000
    C292     C        0.21960    0.15530    0.24240    1.000
    H208     H        0.21090    0.14660    0.31240    1.000
    C293     C        0.24510    0.18080    0.04380    1.000
    H209     H        0.25290    0.18950    0.97290    1.000
    C294     C        0.21187    0.20240    0.08960    1.000
    H210     H        0.19830    0.22800    0.05030    1.000
    C295     C        0.91898    0.04460    0.23750    1.000
    H211     H        0.92770    0.07770    0.24940    1.000
    C296     C        0.92240    0.00670    0.31280    1.000
    H212     H        0.93400    0.00920    0.38350    1.000
    C297     C        0.90590    0.96460    0.26590    1.000
    H213     H        0.90330    0.93290    0.29880    1.000
    C298     C        0.89332    0.97810    0.15810    1.000
    C299     C        0.87500    0.94770    0.08160    1.000
    C300     C        0.86339    0.96200    0.97670    1.000
    C301     C        0.84553    0.93180    0.89450    1.000
    H214     H        0.83920    0.89750    0.89960    1.000
    C302     C        0.83934    0.96160    0.80730    1.000
    H215     H        0.82710    0.95230    0.74010    1.000
    C303     C        0.85427    0.00830    0.83450    1.000
    H216     H        0.85420    0.03590    0.78680    1.000
    C304     C        0.86706    0.89540    0.11460    1.000
    C305     C        0.84020    0.88350    0.19090    1.000
    H217     H        0.82480    0.90830    0.22530    1.000
    C306     C        0.83602    0.83300    0.21710    1.000
    H218     H        0.81750    0.82500    0.27130    1.000
    C307     C        0.88860    0.85660    0.06400    1.000
    H219     H        0.90750    0.86340    0.01000    1.000
    C308     C        0.88059    0.80830    0.09730    1.000
    H220     H        0.89420    0.78180    0.06330    1.000
    C309     C        0.89815    0.12950    0.82720    1.000
    H221     H        0.92630    0.12460    0.83030    1.000
    C310     C        0.87720    0.15900    0.74850    1.000
    H222     H        0.88860    0.17690    0.69060    1.000
    C311     C        0.83770    0.15630    0.77290    1.000
    H223     H        0.81640    0.17300    0.73610    1.000
    C312     C        0.83414    0.12490    0.86070    1.000
    C313     C        0.79965    0.11270    0.91800    1.000
    C314     C        0.79808    0.08850    0.01440    1.000
    C315     C        0.76380    0.07790    0.07840    1.000
    H224     H        0.73670    0.08450    0.05860    1.000
    C316     C        0.77730    0.05650    0.17310    1.000
    H225     H        0.76160    0.04610    0.23180    1.000
    C317     C        0.81916    0.05310    0.16600    1.000
    H226     H        0.83620    0.04000    0.22180    1.000
    C318     C        0.76139    0.13260    0.87080    1.000
    C319     C        0.74080    0.16920    0.92700    1.000
    H227     H        0.75050    0.18040    0.99570    1.000
    C320     C        0.70591    0.18910    0.88080    1.000
    H228     H        0.69170    0.21320    0.92060    1.000
    C321     C        0.74589    0.11730    0.77050    1.000
    H229     H        0.75880    0.09240    0.72990    1.000
    C322     C        0.71092    0.13980    0.73160    1.000
    H230     H        0.70000    0.12910    0.66380    1.000
    C323     C        0.95265    0.02770    0.89500    1.000
    H231     H        0.93550    0.00500    0.85740    1.000
    C324     C        0.99447    0.03140    0.87880    1.000
    H232     H        0.00980    0.01280    0.82920    1.000
    C325     C        0.00794    0.06640    0.94770    1.000
    H233     H        0.03500    0.07670    0.95730    1.000
    C326     C        0.97424    0.08550    0.00470    1.000
    C327     C        0.97292    0.12590    0.07400    1.000
    C328     C        0.93865    0.14720    0.11520    1.000
    C329     C        0.93470    0.19060    0.18100    1.000
    H234     H        0.95590    0.21090    0.20820    1.000
    C330     C        0.89550    0.19730    0.19740    1.000
    H235     H        0.88380    0.22360    0.23660    1.000
    C331     C        0.87490    0.15750    0.14490    1.000
    H236     H        0.84670    0.15240    0.14550    1.000
    C332     C        0.01194    0.14900    0.11410    1.000
    C333     C        0.03889    0.12060    0.17580    1.000
    H237     H        0.03330    0.08690    0.19220    1.000
    C334     C        0.07433    0.14300    0.21290    1.000
    H238     H        0.09240    0.12390    0.25660    1.000
    C335     C        0.02269    0.19690    0.08410    1.000
    H239     H        0.00610    0.21620    0.03660    1.000
    C336     C        0.05832    0.21540    0.12610    1.000
    H240     H        0.06520    0.24860    0.10860    1.000
    N55      N        0.44178    0.06195    0.01770    1.000
    N56      N        0.39932    0.12799    0.88310    1.000
    N57      N        0.58077    0.18702    0.78600    1.000
    N58      N        0.62976    0.51439    0.44270    1.000
    N59      N        0.60098    0.52691    0.65040    1.000
    N60      N        0.64514    0.29426    0.65180    1.000
    N61      N        0.33188    0.07246    0.91730    1.000
    N62      N        0.37661    0.11550    0.08460    1.000
    N63      N        0.19802    0.18940    0.18530    1.000
    N64      N        0.90142    0.02790    0.14460    1.000
    N65      N        0.86862    0.00930    0.93590    1.000
    N66      N        0.85470    0.79705    0.17500    1.000
    N67      N        0.87263    0.10987    0.89560    1.000
    N68      N        0.83204    0.07010    0.07300    1.000
    N69      N        0.69155    0.17607    0.78480    1.000
    N70      N        0.94018    0.05966    0.96860    1.000
    N71      N        0.90054    0.12869    0.09520    1.000
    N72      N        0.08414    0.18928    0.19050    1.000
