# CIF file generated by openbabel 3.1.0, see https://openbabel.org
data_I
_chemical_name_common 'image0'
_cell_length_a 7.7476
_cell_length_b 18.393
_cell_length_c 18.753
_cell_angle_alpha 90
_cell_angle_beta 101.72
_cell_angle_gamma 90
_space_group_name_H-M_alt 'P 1'
_space_group_name_Hall 'P 1'
loop_
    _symmetry_equiv_pos_as_xyz
    x,y,z
loop_
    _atom_site_label
    _atom_site_type_symbol
    _atom_site_fract_x
    _atom_site_fract_y
    _atom_site_fract_z
    _atom_site_occupancy
    Cd1      Cd       0.45931    0.16342    0.10277    1.000
    Cd2      Cd       0.08366    0.46304    0.36255    1.000
    O1       O        0.08920    0.51040    0.25360    1.000
    O2       O        0.03330    0.60860    0.31330    1.000
    O3       O        0.98020    0.84710    0.18880    1.000
    O4       O        0.98650    0.85560    0.07270    1.000
    O5       O        0.42940    0.41540    0.70400    1.000
    O6       O        0.43640    0.29780    0.72090    1.000
    O7       O        0.44420    0.20050    0.97330    1.000
    O8       O        0.39400    0.27830    0.05710    1.000
    O9       O        0.59860    0.06170    0.07650    1.000
    O10      O        0.82130    0.02060    0.03000    1.000
    N1       N        0.22750    0.53130    0.00230    1.000
    N2       N        0.26530    0.58470    0.90340    1.000
    H1       H        0.29070    0.59210    0.86140    1.000
    N3       N        0.20990    0.63560    0.94590    1.000
    C1       C        0.06730    0.57850    0.25840    1.000
    C2       C        0.08410    0.62400    0.19150    1.000
    C3       C        0.04370    0.69710    0.19090    1.000
    H2       H        0.01070    0.71790    0.23130    1.000
    C4       C        0.05170    0.74060    0.13010    1.000
    C5       C        0.09930    0.70970    0.06940    1.000
    H3       H        0.10540    0.73810    0.02900    1.000
    C6       C        0.13840    0.63480    0.06990    1.000
    C7       C        0.13510    0.59270    0.13070    1.000
    H4       H        0.16640    0.54390    0.13130    1.000
    C8       C        0.00530    0.81940    0.13000    1.000
    C9       C        0.19300    0.60230    0.00610    1.000
    C10      C        0.27300    0.52340    0.93690    1.000
    C11      C        0.32050    0.45230    0.91310    1.000
    C12      C        0.33720    0.39240    0.95960    1.000
    H5       H        0.31480    0.39850    0.00610    1.000
    C13      C        0.38510    0.32500    0.93960    1.000
    C14      C        0.41200    0.31650    0.86750    1.000
    H6       H        0.44120    0.27080    0.85220    1.000
    C15      C        0.39670    0.37220    0.82090    1.000
    C16      C        0.35100    0.44100    0.84220    1.000
    H7       H        0.34050    0.47960    0.80960    1.000
    C17      C        0.42160    0.36150    0.74310    1.000
    C18      C        0.41000    0.26290    0.99360    1.000
    C19      C        0.69830    0.06360    0.03080    1.000
    H8       H        0.67780    0.09960    0.99530    1.000
    Cd3      Cd       0.54069    0.66342    0.39723    1.000
    Cd4      Cd       0.91634    0.96304    0.13745    1.000
    O11      O        0.91080    0.01040    0.24640    1.000
    O12      O        0.96670    0.10860    0.18670    1.000
    O13      O        0.01980    0.34710    0.31120    1.000
    O14      O        0.01350    0.35560    0.42730    1.000
    O15      O        0.57060    0.91540    0.79600    1.000
    O16      O        0.56360    0.79780    0.77910    1.000
    O17      O        0.55580    0.70050    0.52670    1.000
    O18      O        0.60600    0.77830    0.44290    1.000
    O19      O        0.40140    0.56170    0.42350    1.000
    O20      O        0.17870    0.52060    0.47000    1.000
    N4       N        0.77250    0.03130    0.49770    1.000
    N5       N        0.73470    0.08470    0.59660    1.000
    H9       H        0.70930    0.09210    0.63860    1.000
    N6       N        0.79010    0.13560    0.55410    1.000
    C20      C        0.93270    0.07850    0.24160    1.000
    C21      C        0.91590    0.12400    0.30850    1.000
    C22      C        0.95630    0.19710    0.30910    1.000
    H10      H        0.98930    0.21790    0.26870    1.000
    C23      C        0.94830    0.24060    0.36990    1.000
    C24      C        0.90070    0.20970    0.43060    1.000
    H11      H        0.89460    0.23810    0.47100    1.000
    C25      C        0.86160    0.13480    0.43010    1.000
    C26      C        0.86490    0.09270    0.36930    1.000
    H12      H        0.83360    0.04390    0.36870    1.000
    C27      C        0.99470    0.31940    0.37000    1.000
    C28      C        0.80700    0.10230    0.49390    1.000
    C29      C        0.72700    0.02340    0.56310    1.000
    C30      C        0.67950    0.95230    0.58690    1.000
    C31      C        0.66280    0.89240    0.54040    1.000
    H13      H        0.68520    0.89850    0.49390    1.000
    C32      C        0.61490    0.82500    0.56040    1.000
    C33      C        0.58800    0.81650    0.63250    1.000
    H14      H        0.55880    0.77080    0.64780    1.000
    C34      C        0.60330    0.87220    0.67910    1.000
    C35      C        0.64900    0.94100    0.65780    1.000
    H15      H        0.65950    0.97960    0.69040    1.000
    C36      C        0.57840    0.86150    0.75690    1.000
    C37      C        0.59000    0.76290    0.50640    1.000
    C38      C        0.30170    0.56360    0.46920    1.000
    H16      H        0.32220    0.59960    0.50470    1.000
    Cd5      Cd       0.54069    0.83658    0.89723    1.000
    Cd6      Cd       0.91634    0.53696    0.63745    1.000
    O21      O        0.91080    0.48960    0.74640    1.000
    O22      O        0.96670    0.39140    0.68670    1.000
    O23      O        0.01980    0.15290    0.81120    1.000
    O24      O        0.01350    0.14440    0.92730    1.000
    O25      O        0.57060    0.58460    0.29600    1.000
    O26      O        0.56360    0.70220    0.27910    1.000
    O27      O        0.55580    0.79950    0.02670    1.000
    O28      O        0.60600    0.72170    0.94290    1.000
    O29      O        0.40140    0.93830    0.92350    1.000
    O30      O        0.17870    0.97940    0.97000    1.000
    N7       N        0.77250    0.46870    0.99770    1.000
    N8       N        0.73470    0.41530    0.09660    1.000
    H17      H        0.70930    0.40790    0.13860    1.000
    N9       N        0.79010    0.36440    0.05410    1.000
    C39      C        0.93270    0.42150    0.74160    1.000
    C40      C        0.91590    0.37600    0.80850    1.000
    C41      C        0.95630    0.30290    0.80910    1.000
    H18      H        0.98930    0.28210    0.76870    1.000
    C42      C        0.94830    0.25940    0.86990    1.000
    C43      C        0.90070    0.29030    0.93060    1.000
    H19      H        0.89460    0.26190    0.97100    1.000
    C44      C        0.86160    0.36520    0.93010    1.000
    C45      C        0.86490    0.40730    0.86930    1.000
    H20      H        0.83360    0.45610    0.86870    1.000
    C46      C        0.99470    0.18060    0.87000    1.000
    C47      C        0.80700    0.39770    0.99390    1.000
    C48      C        0.72700    0.47660    0.06310    1.000
    C49      C        0.67950    0.54770    0.08690    1.000
    C50      C        0.66280    0.60760    0.04040    1.000
    H21      H        0.68520    0.60150    0.99390    1.000
    C51      C        0.61490    0.67500    0.06040    1.000
    C52      C        0.58800    0.68350    0.13250    1.000
    H22      H        0.55880    0.72920    0.14780    1.000
    C53      C        0.60330    0.62780    0.17910    1.000
    C54      C        0.64900    0.55900    0.15780    1.000
    H23      H        0.65950    0.52040    0.19040    1.000
    C55      C        0.57840    0.63850    0.25690    1.000
    C56      C        0.59000    0.73710    0.00640    1.000
    C57      C        0.30170    0.93640    0.96920    1.000
    H24      H        0.32220    0.90040    0.00470    1.000
    Cd7      Cd       0.45931    0.33658    0.60277    1.000
    Cd8      Cd       0.08366    0.03696    0.86255    1.000
    O31      O        0.08920    0.98960    0.75360    1.000
    O32      O        0.03330    0.89140    0.81330    1.000
    O33      O        0.98020    0.65290    0.68880    1.000
    O34      O        0.98650    0.64440    0.57270    1.000
    O35      O        0.42940    0.08460    0.20400    1.000
    O36      O        0.43640    0.20220    0.22090    1.000
    O37      O        0.44420    0.29950    0.47330    1.000
    O38      O        0.39400    0.22170    0.55710    1.000
    O39      O        0.59860    0.43830    0.57650    1.000
    O40      O        0.82130    0.47940    0.53000    1.000
    N10      N        0.22750    0.96870    0.50230    1.000
    N11      N        0.26530    0.91530    0.40340    1.000
    H25      H        0.29070    0.90790    0.36140    1.000
    N12      N        0.20990    0.86440    0.44590    1.000
    C58      C        0.06730    0.92150    0.75840    1.000
    C59      C        0.08410    0.87600    0.69150    1.000
    C60      C        0.04370    0.80290    0.69090    1.000
    H26      H        0.01070    0.78210    0.73130    1.000
    C61      C        0.05170    0.75940    0.63010    1.000
    C62      C        0.09930    0.79030    0.56940    1.000
    H27      H        0.10540    0.76190    0.52900    1.000
    C63      C        0.13840    0.86520    0.56990    1.000
    C64      C        0.13510    0.90730    0.63070    1.000
    H28      H        0.16640    0.95610    0.63130    1.000
    C65      C        0.00530    0.68060    0.63000    1.000
    C66      C        0.19300    0.89770    0.50610    1.000
    C67      C        0.27300    0.97660    0.43690    1.000
    C68      C        0.32050    0.04770    0.41310    1.000
    C69      C        0.33720    0.10760    0.45960    1.000
    H29      H        0.31480    0.10150    0.50610    1.000
    C70      C        0.38510    0.17500    0.43960    1.000
    C71      C        0.41200    0.18350    0.36750    1.000
    H30      H        0.44120    0.22920    0.35220    1.000
    C72      C        0.39670    0.12780    0.32090    1.000
    C73      C        0.35100    0.05900    0.34220    1.000
    H31      H        0.34050    0.02040    0.30960    1.000
    C74      C        0.42160    0.13850    0.24310    1.000
    C75      C        0.41000    0.23710    0.49360    1.000
    C76      C        0.69830    0.43640    0.53080    1.000
    H32      H        0.67780    0.40040    0.49530    1.000
