# CIF file generated by openbabel 3.1.0, see https://openbabel.org
data_I
_chemical_name_common 'image0'
_cell_length_a 9.3789
_cell_length_b 10.9247
_cell_length_c 18.8993
_cell_angle_alpha 104.858
_cell_angle_beta 94.314
_cell_angle_gamma 107.714
_space_group_name_H-M_alt 'P 1'
_space_group_name_Hall 'P 1'
loop_
    _symmetry_equiv_pos_as_xyz
    x,y,z
loop_
    _atom_site_label
    _atom_site_type_symbol
    _atom_site_fract_x
    _atom_site_fract_y
    _atom_site_fract_z
    _atom_site_occupancy
    Zn1      Zn       0.31589    0.03581    0.13786    1.000
    Zn2      Zn       0.04421    0.36595    0.76793    1.000
    O1       O        0.97270    0.99690    0.10852    1.000
    O2       O        0.21000    0.15280    0.03254    1.000
    O3       O        0.42690    0.13800    0.07846    1.000
    O4       O        0.17370    0.08060    0.20025    1.000
    C1       C        0.59180    0.30180    0.00147    1.000
    H1       H        0.64610    0.27850    0.03750    1.000
    C2       C        0.34980    0.17440    0.03552    1.000
    C3       C        0.58890    0.41710    0.90894    1.000
    H2       H        0.64130    0.47270    0.88130    1.000
    C4       C        0.03100    0.03280    0.17492    1.000
    C5       C        0.67120    0.38350    0.96123    1.000
    C6       C        0.77740    0.00810    0.21318    1.000
    H3       H        0.74140    0.01250    0.16590    1.000
    C7       C        0.35370    0.28750    0.93605    1.000
    H4       H        0.24590    0.25320    0.92680    1.000
    C8       C        0.92760    0.01830    0.23127    1.000
    C9       C        0.43400    0.25460    0.98923    1.000
    C10      C        0.84030    0.43940    0.97810    1.000
    C11      C        0.68000    0.99150    0.26416    1.000
    C12      C        0.98150    0.01550    0.30125    1.000
    H5       H        0.08540    0.02640    0.31410    1.000
    C13      C        0.43090    0.36990    0.89683    1.000
    O5       O        0.91070    0.15832    0.01810    1.000
    O6       O        0.78940    0.15586    0.91077    1.000
    O7       O        0.49750    0.04470    0.19886    1.000
    O8       O        0.19740    0.37030    0.84208    1.000
    O9       O        0.41740    0.91560    0.27200    1.000
    C14      C        0.93050    0.36470    0.99264    1.000
    C15      C        0.91240    0.57440    0.98486    1.000
    H6       H        0.85370    0.62650    0.97400    1.000
    C16      C        0.87120    0.21420    0.97411    1.000
    O10      O        0.92650    0.73320    0.32803    1.000
    C17      C        0.34050    0.41040    0.84322    1.000
    O11      O        0.40510    0.47720    0.80470    1.000
    C18      C        0.51820    0.98160    0.24468    1.000
    C19      C        0.73260    0.98520    0.33414    1.000
    H7       H        0.66520    0.97310    0.36880    1.000
    C20      C        0.88360    0.99670    0.35269    1.000
    C21      C        0.94050    0.99470    0.42801    1.000
    C22      C        0.08350    0.91980    0.51030    1.000
    H8       H        0.14180    0.86490    0.51690    1.000
    C23      C        0.02520    0.91080    0.43840    1.000
    O12      O        0.17260    0.79570    0.37184    1.000
    C24      C        0.04540    0.80650    0.37520    1.000
    Zn3      Zn       0.68411    0.96419    0.86214    1.000
    Zn4      Zn       0.95579    0.63405    0.23207    1.000
    O13      O        0.02730    0.00310    0.89148    1.000
    O14      O        0.79000    0.84720    0.96746    1.000
    O15      O        0.57310    0.86200    0.92154    1.000
    O16      O        0.82630    0.91940    0.79975    1.000
    C25      C        0.40820    0.69820    0.99853    1.000
    H9       H        0.35390    0.72150    0.96250    1.000
    C26      C        0.65020    0.82560    0.96448    1.000
    C27      C        0.41110    0.58290    0.09106    1.000
    H10      H        0.35870    0.52730    0.11870    1.000
    C28      C        0.96900    0.96720    0.82508    1.000
    C29      C        0.32880    0.61650    0.03877    1.000
    C30      C        0.22260    0.99190    0.78682    1.000
    H11      H        0.25860    0.98750    0.83410    1.000
    C31      C        0.64630    0.71250    0.06395    1.000
    H12      H        0.75410    0.74680    0.07320    1.000
    C32      C        0.07240    0.98170    0.76873    1.000
    C33      C        0.56600    0.74540    0.01077    1.000
    C34      C        0.15970    0.56060    0.02190    1.000
    C35      C        0.32000    0.00850    0.73584    1.000
    C36      C        0.01850    0.98450    0.69875    1.000
    H13      H        0.91460    0.97360    0.68590    1.000
    C37      C        0.56910    0.63010    0.10317    1.000
    O17      O        0.08930    0.84168    0.98190    1.000
    O18      O        0.21060    0.84414    0.08923    1.000
    O19      O        0.50250    0.95530    0.80114    1.000
    O20      O        0.80260    0.62970    0.15792    1.000
    O21      O        0.58260    0.08440    0.72800    1.000
    C38      C        0.06950    0.63530    0.00736    1.000
    C39      C        0.08760    0.42560    0.01514    1.000
    H14      H        0.14630    0.37350    0.02600    1.000
    C40      C        0.12880    0.78580    0.02589    1.000
    O22      O        0.07350    0.26680    0.67197    1.000
    C41      C        0.65950    0.58960    0.15678    1.000
    O23      O        0.59490    0.52280    0.19530    1.000
    C42      C        0.48180    0.01840    0.75532    1.000
    C43      C        0.26740    0.01480    0.66586    1.000
    H15      H        0.33480    0.02690    0.63120    1.000
    C44      C        0.11640    0.00330    0.64731    1.000
    C45      C        0.05950    0.00530    0.57199    1.000
    C46      C        0.91650    0.08020    0.48970    1.000
    H16      H        0.85820    0.13510    0.48310    1.000
    C47      C        0.97480    0.08920    0.56160    1.000
    O24      O        0.82740    0.20430    0.62816    1.000
    C48      C        0.95460    0.19350    0.62480    1.000
    Zn5      Zn       0.00000    0.00000    0.00000    1.000
