# CIF file generated by openbabel 3.1.0, see https://openbabel.org
data_I
_chemical_name_common 'image0'
_cell_length_a 14.956
_cell_length_b 23.671
_cell_length_c 9.026
_cell_angle_alpha 90
_cell_angle_beta 90
_cell_angle_gamma 90
_space_group_name_H-M_alt 'P 1'
_space_group_name_Hall 'P 1'
loop_
    _symmetry_equiv_pos_as_xyz
    x,y,z
loop_
    _atom_site_label
    _atom_site_type_symbol
    _atom_site_fract_x
    _atom_site_fract_y
    _atom_site_fract_z
    _atom_site_occupancy
    Fe1      Fe       0.92451    0.94430    0.99939    1.000
    O1       O        0.86710    0.92690    0.19500    1.000
    O2       O        0.58780    0.87590    0.19590    1.000
    O3       O        0.48340    0.93030    0.30390    1.000
    O4       O        0.76790    0.87020    0.30300    1.000
    C1       C        0.81160    0.88780    0.19580    1.000
    C2       C        0.54400    0.89210    0.30200    1.000
    Cl1      Cl       0.56865    0.74572    0.15520    1.000
    Fe2      Fe       0.92451    0.44430    0.49939    1.000
    O5       O        0.86710    0.42690    0.69500    1.000
    O6       O        0.58780    0.37590    0.69590    1.000
    O7       O        0.48340    0.43030    0.80390    1.000
    O8       O        0.76790    0.37020    0.80300    1.000
    C3       C        0.81160    0.38780    0.69580    1.000
    C4       C        0.54400    0.39210    0.80200    1.000
    Cl2      Cl       0.56865    0.24572    0.65520    1.000
    Fe3      Fe       0.42451    0.94430    0.49939    1.000
    O9       O        0.36710    0.92690    0.69500    1.000
    O10      O        0.08780    0.87590    0.69590    1.000
    O11      O        0.98340    0.93030    0.80390    1.000
    O12      O        0.26790    0.87020    0.80300    1.000
    C5       C        0.31160    0.88780    0.69580    1.000
    C6       C        0.04400    0.89210    0.80200    1.000
    Cl3      Cl       0.06865    0.74572    0.65520    1.000
    Fe4      Fe       0.42451    0.44430    0.99939    1.000
    O13      O        0.36710    0.42690    0.19500    1.000
    O14      O        0.08780    0.37590    0.19590    1.000
    O15      O        0.98340    0.43030    0.30390    1.000
    O16      O        0.26790    0.37020    0.30300    1.000
    C7       C        0.31160    0.38780    0.19580    1.000
    C8       C        0.04400    0.39210    0.30200    1.000
    Cl4      Cl       0.06865    0.24572    0.15520    1.000
    Fe5      Fe       0.07549    0.05570    0.99939    1.000
    O17      O        0.13290    0.07310    0.19500    1.000
    O18      O        0.41220    0.12410    0.19590    1.000
    O19      O        0.51660    0.06970    0.30390    1.000
    O20      O        0.23210    0.12980    0.30300    1.000
    C9       C        0.18840    0.11220    0.19580    1.000
    C10      C        0.45600    0.10790    0.30200    1.000
    Cl5      Cl       0.43135    0.25428    0.15520    1.000
    Fe6      Fe       0.07549    0.55570    0.49939    1.000
    O21      O        0.13290    0.57310    0.69500    1.000
    O22      O        0.41220    0.62410    0.69590    1.000
    O23      O        0.51660    0.56970    0.80390    1.000
    O24      O        0.23210    0.62980    0.80300    1.000
    C11      C        0.18840    0.61220    0.69580    1.000
    C12      C        0.45600    0.60790    0.80200    1.000
    Cl6      Cl       0.43135    0.75428    0.65520    1.000
    Fe7      Fe       0.57549    0.05570    0.49939    1.000
    O25      O        0.63290    0.07310    0.69500    1.000
    O26      O        0.91220    0.12410    0.69590    1.000
    O27      O        0.01660    0.06970    0.80390    1.000
    O28      O        0.73210    0.12980    0.80300    1.000
    C13      C        0.68840    0.11220    0.69580    1.000
    C14      C        0.95600    0.10790    0.80200    1.000
    Cl7      Cl       0.93135    0.25428    0.65520    1.000
    Fe8      Fe       0.57549    0.55570    0.99939    1.000
    O29      O        0.63290    0.57310    0.19500    1.000
    O30      O        0.91220    0.62410    0.19590    1.000
    O31      O        0.01660    0.56970    0.30390    1.000
    O32      O        0.73210    0.62980    0.30300    1.000
    C15      C        0.68840    0.61220    0.19580    1.000
    C16      C        0.95600    0.60790    0.30200    1.000
    Cl8      Cl       0.93135    0.75428    0.15520    1.000
    Fe9      Fe       0.17451    0.30570    0.24939    1.000
    O33      O        0.11710    0.32310    0.44500    1.000
    O34      O        0.83780    0.37410    0.44590    1.000
    O35      O        0.73340    0.31970    0.55390    1.000
    O36      O        0.01790    0.37980    0.55300    1.000
    C17      C        0.06160    0.36220    0.44580    1.000
    C18      C        0.79400    0.35790    0.55200    1.000
    Cl9      Cl       0.81865    0.50428    0.40520    1.000
    Fe10     Fe       0.17451    0.80570    0.74939    1.000
    O37      O        0.11710    0.82310    0.94500    1.000
    O38      O        0.83780    0.87410    0.94590    1.000
    O39      O        0.73340    0.81970    0.05390    1.000
    O40      O        0.01790    0.87980    0.05300    1.000
    C19      C        0.06160    0.86220    0.94580    1.000
    C20      C        0.79400    0.85790    0.05200    1.000
    Cl10     Cl       0.81865    0.00428    0.90520    1.000
    Fe11     Fe       0.67451    0.30570    0.74939    1.000
    O41      O        0.61710    0.32310    0.94500    1.000
    O42      O        0.33780    0.37410    0.94590    1.000
    O43      O        0.23340    0.31970    0.05390    1.000
    O44      O        0.51790    0.37980    0.05300    1.000
    C21      C        0.56160    0.36220    0.94580    1.000
    C22      C        0.29400    0.35790    0.05200    1.000
    Cl11     Cl       0.31865    0.50428    0.90520    1.000
    Fe12     Fe       0.67451    0.80570    0.24939    1.000
    O45      O        0.61710    0.82310    0.44500    1.000
    O46      O        0.33780    0.87410    0.44590    1.000
    O47      O        0.23340    0.81970    0.55390    1.000
    O48      O        0.51790    0.87980    0.55300    1.000
    C23      C        0.56160    0.86220    0.44580    1.000
    C24      C        0.29400    0.85790    0.55200    1.000
    Cl12     Cl       0.31865    0.00428    0.40520    1.000
    Fe13     Fe       0.32549    0.19430    0.24939    1.000
    O49      O        0.38290    0.17690    0.44500    1.000
    O50      O        0.66220    0.12590    0.44590    1.000
    O51      O        0.76660    0.18030    0.55390    1.000
    O52      O        0.48210    0.12020    0.55300    1.000
    C25      C        0.43840    0.13780    0.44580    1.000
    C26      C        0.70600    0.14210    0.55200    1.000
    Cl13     Cl       0.68135    0.99572    0.40520    1.000
    Fe14     Fe       0.32549    0.69430    0.74939    1.000
    O53      O        0.38290    0.67690    0.94500    1.000
    O54      O        0.66220    0.62590    0.94590    1.000
    O55      O        0.76660    0.68030    0.05390    1.000
    O56      O        0.48210    0.62020    0.05300    1.000
    C27      C        0.43840    0.63780    0.94580    1.000
    C28      C        0.70600    0.64210    0.05200    1.000
    Cl14     Cl       0.68135    0.49572    0.90520    1.000
    Fe15     Fe       0.82549    0.19430    0.74939    1.000
    O57      O        0.88290    0.17690    0.94500    1.000
    O58      O        0.16220    0.12590    0.94590    1.000
    O59      O        0.26660    0.18030    0.05390    1.000
    O60      O        0.98210    0.12020    0.05300    1.000
    C29      C        0.93840    0.13780    0.94580    1.000
    C30      C        0.20600    0.14210    0.05200    1.000
    Cl15     Cl       0.18135    0.99572    0.90520    1.000
    Fe16     Fe       0.82549    0.69430    0.24939    1.000
    O61      O        0.88290    0.67690    0.44500    1.000
    O62      O        0.16220    0.62590    0.44590    1.000
    O63      O        0.26660    0.68030    0.55390    1.000
    O64      O        0.98210    0.62020    0.55300    1.000
    C31      C        0.93840    0.63780    0.44580    1.000
    C32      C        0.20600    0.64210    0.55200    1.000
    Cl16     Cl       0.18135    0.49572    0.40520    1.000
    O65      O        0.75000    0.75000    0.32710    1.000
    O66      O        0.75000    0.25000    0.82710    1.000
    O67      O        0.25000    0.25000    0.32710    1.000
    O68      O        0.25000    0.75000    0.82710    1.000
    O69      O        0.00000    0.50000    0.57710    1.000
    O70      O        0.00000    0.00000    0.07710    1.000
    O71      O        0.50000    0.50000    0.07710    1.000
    O72      O        0.50000    0.00000    0.57710    1.000
