# CIF file generated by openbabel 3.1.0, see https://openbabel.org
data_I
_chemical_name_common 'image0'
_cell_length_a 7.7286
_cell_length_b 7.5874
_cell_length_c 17.9816
_cell_angle_alpha 90
_cell_angle_beta 98.214
_cell_angle_gamma 90
_space_group_name_H-M_alt 'P 1'
_space_group_name_Hall 'P 1'
loop_
    _symmetry_equiv_pos_as_xyz
    x,y,z
loop_
    _atom_site_label
    _atom_site_type_symbol
    _atom_site_fract_x
    _atom_site_fract_y
    _atom_site_fract_z
    _atom_site_occupancy
    Fe1      Fe       0.62459    0.93867    0.36313    1.000
    Fe2      Fe       0.72445    0.81528    0.69250    1.000
    P1       P        0.55016    0.07134    0.19010    1.000
    H1       H        0.65800    0.14030    0.20110    1.000
    O1       O        0.42310    0.17970    0.13555    1.000
    O2       O        0.20770    0.65380    0.12343    1.000
    O3       O        0.59340    0.96140    0.59293    1.000
    O4       O        0.47900    0.04550    0.26443    1.000
    O5       O        0.29890    0.09090    0.51394    1.000
    O6       O        0.15490    0.35920    0.20149    1.000
    O7       O        0.59730    0.90110    0.15513    1.000
    O8       O        0.89770    0.47170    0.22425    1.000
    O9       O        0.94760    0.75290    0.14086    1.000
    C1       C        0.03690    0.47530    0.19630    1.000
    C2       C        0.06680    0.64120    0.14950    1.000
    C3       C        0.58640    0.96180    0.52180    1.000
    Fe3      Fe       0.37541    0.43867    0.13687    1.000
    Fe4      Fe       0.27555    0.31528    0.80750    1.000
    P2       P        0.44984    0.57134    0.30990    1.000
    H2       H        0.34200    0.64030    0.29890    1.000
    O10      O        0.57690    0.67970    0.36445    1.000
    O11      O        0.79230    0.15380    0.37657    1.000
    O12      O        0.40660    0.46140    0.90707    1.000
    O13      O        0.52100    0.54550    0.23557    1.000
    O14      O        0.70110    0.59090    0.98606    1.000
    O15      O        0.84510    0.85920    0.29851    1.000
    O16      O        0.40270    0.40110    0.34487    1.000
    O17      O        0.10230    0.97170    0.27575    1.000
    O18      O        0.05240    0.25290    0.35914    1.000
    C4       C        0.96310    0.97530    0.30370    1.000
    C5       C        0.93320    0.14120    0.35050    1.000
    C6       C        0.41360    0.46180    0.97820    1.000
    Fe5      Fe       0.37541    0.06133    0.63687    1.000
    Fe6      Fe       0.27555    0.18472    0.30750    1.000
    P3       P        0.44984    0.92866    0.80990    1.000
    H3       H        0.34200    0.85970    0.79890    1.000
    O19      O        0.57690    0.82030    0.86445    1.000
    O20      O        0.79230    0.34620    0.87657    1.000
    O21      O        0.40660    0.03860    0.40707    1.000
    O22      O        0.52100    0.95450    0.73557    1.000
    O23      O        0.70110    0.90910    0.48606    1.000
    O24      O        0.84510    0.64080    0.79851    1.000
    O25      O        0.40270    0.09890    0.84487    1.000
    O26      O        0.10230    0.52830    0.77575    1.000
    O27      O        0.05240    0.24710    0.85914    1.000
    C7       C        0.96310    0.52470    0.80370    1.000
    C8       C        0.93320    0.35880    0.85050    1.000
    C9       C        0.41360    0.03820    0.47820    1.000
    Fe7      Fe       0.62459    0.56133    0.86313    1.000
    Fe8      Fe       0.72445    0.68472    0.19250    1.000
    P4       P        0.55016    0.42866    0.69010    1.000
    H4       H        0.65800    0.35970    0.70110    1.000
    O28      O        0.42310    0.32030    0.63555    1.000
    O29      O        0.20770    0.84620    0.62343    1.000
    O30      O        0.59340    0.53860    0.09293    1.000
    O31      O        0.47900    0.45450    0.76443    1.000
    O32      O        0.29890    0.40910    0.01394    1.000
    O33      O        0.15490    0.14080    0.70149    1.000
    O34      O        0.59730    0.59890    0.65513    1.000
    O35      O        0.89770    0.02830    0.72425    1.000
    O36      O        0.94760    0.74710    0.64086    1.000
    C10      C        0.03690    0.02470    0.69630    1.000
    C11      C        0.06680    0.85880    0.64950    1.000
    C12      C        0.58640    0.53820    0.02180    1.000
