# CIF file generated by openbabel 3.1.0, see https://openbabel.org
data_I
_chemical_name_common 'image0'
_cell_length_a 12.5255
_cell_length_b 8.1701
_cell_length_c 20.9474
_cell_angle_alpha 90
_cell_angle_beta 96.835
_cell_angle_gamma 90
_space_group_name_H-M_alt 'P 1'
_space_group_name_Hall 'P 1'
loop_
    _symmetry_equiv_pos_as_xyz
    x,y,z
loop_
    _atom_site_label
    _atom_site_type_symbol
    _atom_site_fract_x
    _atom_site_fract_y
    _atom_site_fract_z
    _atom_site_occupancy
    C1       C        0.66530    0.57140    0.83320    1.000
    Cu1      Cu       0.99885    0.14147    0.24513    1.000
    N1       N        0.90310    0.74930    0.80720    1.000
    N2       N        0.59460    0.50690    0.80270    1.000
    C2       C        0.75020    0.65410    0.86920    1.000
    C3       C        0.73870    0.79550    0.06670    1.000
    C4       C        0.81210    0.94960    0.16540    1.000
    C5       C        0.83020    0.79100    0.97060    1.000
    H1       H        0.88940    0.82410    0.94930    1.000
    C6       C        0.73240    0.84910    0.13300    1.000
    C7       C        0.66190    0.64890    0.97090    1.000
    H2       H        0.60550    0.58370    0.94990    1.000
    N3       N        0.88070    0.02910    0.19240    1.000
    N4       N        0.57310    0.78500    0.19460    1.000
    C8       C        0.82560    0.83790    0.03400    1.000
    H3       H        0.88300    0.90020    0.05560    1.000
    C9       C        0.64560    0.81520    0.16610    1.000
    C10      C        0.65780    0.69730    0.03410    1.000
    H4       H        0.59910    0.66340    0.05570    1.000
    C11      C        0.74790    0.69480    0.93750    1.000
    C12      C        0.83260    0.70530    0.83520    1.000
    C13      C        0.83470    0.07140    0.66680    1.000
    Cu2      Cu       0.50115    0.64147    0.25487    1.000
    N5       N        0.59690    0.24930    0.69280    1.000
    N6       N        0.90540    0.00690    0.69730    1.000
    C14      C        0.74980    0.15410    0.63080    1.000
    C15      C        0.76130    0.29550    0.43330    1.000
    C16      C        0.68790    0.44960    0.33460    1.000
    C17      C        0.66980    0.29100    0.52940    1.000
    H5       H        0.61060    0.32410    0.55070    1.000
    C18      C        0.76760    0.34910    0.36700    1.000
    C19      C        0.83810    0.14890    0.52910    1.000
    H6       H        0.89450    0.08370    0.55010    1.000
    N7       N        0.61930    0.52910    0.30760    1.000
    N8       N        0.92690    0.28500    0.30540    1.000
    C20      C        0.67440    0.33790    0.46600    1.000
    H7       H        0.61700    0.40020    0.44440    1.000
    C21      C        0.85440    0.31520    0.33390    1.000
    C22      C        0.84220    0.19730    0.46590    1.000
    H8       H        0.90090    0.16340    0.44430    1.000
    C23      C        0.75210    0.19480    0.56250    1.000
    C24      C        0.66740    0.20530    0.66480    1.000
    C25      C        0.33470    0.42860    0.16680    1.000
    Cu3      Cu       0.00115    0.85853    0.75487    1.000
    N9       N        0.09690    0.25070    0.19280    1.000
    N10      N        0.40540    0.49310    0.19730    1.000
    C26      C        0.24980    0.34590    0.13080    1.000
    C27      C        0.26130    0.20450    0.93330    1.000
    C28      C        0.18790    0.05040    0.83460    1.000
    C29      C        0.16980    0.20900    0.02940    1.000
    H9       H        0.11060    0.17590    0.05070    1.000
    C30      C        0.26760    0.15090    0.86700    1.000
    C31      C        0.33810    0.35110    0.02910    1.000
    H10      H        0.39450    0.41630    0.05010    1.000
    N11      N        0.11930    0.97090    0.80760    1.000
    N12      N        0.42690    0.21500    0.80540    1.000
    C32      C        0.17440    0.16210    0.96600    1.000
    H11      H        0.11700    0.09980    0.94440    1.000
    C33      C        0.35440    0.18480    0.83390    1.000
    C34      C        0.34220    0.30270    0.96590    1.000
    H12      H        0.40090    0.33660    0.94430    1.000
    C35      C        0.25210    0.30520    0.06250    1.000
    C36      C        0.16740    0.29470    0.16480    1.000
    C37      C        0.16530    0.92860    0.33320    1.000
    Cu4      Cu       0.49885    0.35853    0.74513    1.000
    N13      N        0.40310    0.75070    0.30720    1.000
    N14      N        0.09460    0.99310    0.30270    1.000
    C38      C        0.25020    0.84590    0.36920    1.000
    C39      C        0.23870    0.70450    0.56670    1.000
    C40      C        0.31210    0.55040    0.66540    1.000
    C41      C        0.33020    0.70900    0.47060    1.000
    H13      H        0.38940    0.67590    0.44930    1.000
    C42      C        0.23240    0.65090    0.63300    1.000
    C43      C        0.16190    0.85110    0.47090    1.000
    H14      H        0.10550    0.91630    0.44990    1.000
    N15      N        0.38070    0.47090    0.69240    1.000
    N16      N        0.07310    0.71500    0.69460    1.000
    C44      C        0.32560    0.66210    0.53400    1.000
    H15      H        0.38300    0.59980    0.55560    1.000
    C45      C        0.14560    0.68480    0.66610    1.000
    C46      C        0.15780    0.80270    0.53410    1.000
    H16      H        0.09910    0.83660    0.55570    1.000
    C47      C        0.24790    0.80520    0.43750    1.000
    C48      C        0.33260    0.79470    0.33520    1.000
