# CIF file generated by openbabel 3.1.0, see https://openbabel.org
data_I
_chemical_name_common 'image0'
_cell_length_a 12.2463
_cell_length_b 15.4577
_cell_length_c 18.8454
_cell_angle_alpha 90
_cell_angle_beta 90
_cell_angle_gamma 90
_space_group_name_H-M_alt 'P 1'
_space_group_name_Hall 'P 1'
loop_
    _symmetry_equiv_pos_as_xyz
    x,y,z
loop_
    _atom_site_label
    _atom_site_type_symbol
    _atom_site_fract_x
    _atom_site_fract_y
    _atom_site_fract_z
    _atom_site_occupancy
    Cd1      Cd       0.19250    0.21535    0.31604    1.000
    O1       O        0.34830    0.16968    0.38357    1.000
    O2       O        0.31260    0.31011    0.38237    1.000
    C1       C        0.36490    0.24590    0.40454    1.000
    C2       C        0.44900    0.25980    0.46186    1.000
    C3       C        0.44200    0.33120    0.50520    1.000
    H1       H        0.38920    0.37490    0.49630    1.000
    C4       C        0.51310    0.33820    0.56200    1.000
    H2       H        0.50650    0.38690    0.59250    1.000
    N1       N        0.59090    0.27966    0.57617    1.000
    C5       C        0.60070    0.21330    0.53120    1.000
    H3       H        0.65750    0.17250    0.53900    1.000
    C6       C        0.53170    0.20120    0.47370    1.000
    H4       H        0.54130    0.15310    0.44290    1.000
    N2       N        0.11440    0.34607    0.27772    1.000
    C7       C        0.13870    0.42220    0.30871    1.000
    H5       H        0.19600    0.42350    0.34270    1.000
    C8       C        0.08450    0.49890    0.29353    1.000
    H6       H        0.10430    0.55130    0.31650    1.000
    C9       C        0.00030    0.49710    0.24396    1.000
    C10      C        0.97570    0.41900    0.21064    1.000
    H7       H        0.91960    0.41600    0.17590    1.000
    C11      C        0.03470    0.34550    0.22920    1.000
    H8       H        0.01760    0.29240    0.20630    1.000
    C12      C        0.93590    0.57750    0.22578    1.000
    O3       O        0.97457    0.65022    0.24190    1.000
    O4       O        0.84706    0.56808    0.19393    1.000
    Cd2      Cd       0.30750    0.78465    0.81604    1.000
    O5       O        0.15170    0.83032    0.88357    1.000
    O6       O        0.18740    0.68989    0.88237    1.000
    C13      C        0.13510    0.75410    0.90454    1.000
    C14      C        0.05100    0.74020    0.96186    1.000
    C15      C        0.05800    0.66880    0.00520    1.000
    H9       H        0.11080    0.62510    0.99630    1.000
    C16      C        0.98690    0.66180    0.06200    1.000
    H10      H        0.99350    0.61310    0.09250    1.000
    N3       N        0.90910    0.72034    0.07617    1.000
    C17      C        0.89930    0.78670    0.03120    1.000
    H11      H        0.84250    0.82750    0.03900    1.000
    C18      C        0.96830    0.79880    0.97370    1.000
    H12      H        0.95870    0.84690    0.94290    1.000
    N4       N        0.38560    0.65393    0.77772    1.000
    C19      C        0.36130    0.57780    0.80871    1.000
    H13      H        0.30400    0.57650    0.84270    1.000
    C20      C        0.41550    0.50110    0.79353    1.000
    H14      H        0.39570    0.44870    0.81650    1.000
    C21      C        0.49970    0.50290    0.74396    1.000
    C22      C        0.52430    0.58100    0.71064    1.000
    H15      H        0.58040    0.58400    0.67590    1.000
    C23      C        0.46530    0.65450    0.72920    1.000
    H16      H        0.48240    0.70760    0.70630    1.000
    C24      C        0.56410    0.42250    0.72578    1.000
    O7       O        0.52543    0.34978    0.74190    1.000
    O8       O        0.65294    0.43192    0.69393    1.000
    Cd3      Cd       0.80750    0.71535    0.18396    1.000
    O9       O        0.65170    0.66968    0.11643    1.000
    O10      O        0.68740    0.81011    0.11763    1.000
    C25      C        0.63510    0.74590    0.09546    1.000
    C26      C        0.55100    0.75980    0.03814    1.000
    C27      C        0.55800    0.83120    0.99480    1.000
    H17      H        0.61080    0.87490    0.00370    1.000
    C28      C        0.48690    0.83820    0.93800    1.000
    H18      H        0.49350    0.88690    0.90750    1.000
    N5       N        0.40910    0.77966    0.92383    1.000
    C29      C        0.39930    0.71330    0.96880    1.000
    H19      H        0.34250    0.67250    0.96100    1.000
    C30      C        0.46830    0.70120    0.02630    1.000
    H20      H        0.45870    0.65310    0.05710    1.000
    N6       N        0.88560    0.84607    0.22228    1.000
    C31      C        0.86130    0.92220    0.19129    1.000
    H21      H        0.80400    0.92350    0.15730    1.000
    C32      C        0.91550    0.99890    0.20647    1.000
    H22      H        0.89570    0.05130    0.18350    1.000
    C33      C        0.99970    0.99710    0.25604    1.000
    C34      C        0.02430    0.91900    0.28936    1.000
    H23      H        0.08040    0.91600    0.32410    1.000
    C35      C        0.96530    0.84550    0.27080    1.000
    H24      H        0.98240    0.79240    0.29370    1.000
    C36      C        0.06410    0.07750    0.27422    1.000
    O11      O        0.02543    0.15022    0.25810    1.000
    O12      O        0.15294    0.06808    0.30607    1.000
    Cd4      Cd       0.69250    0.28465    0.68396    1.000
    O13      O        0.84830    0.33032    0.61643    1.000
    O14      O        0.81260    0.18989    0.61763    1.000
    C37      C        0.86490    0.25410    0.59546    1.000
    C38      C        0.94900    0.24020    0.53814    1.000
    C39      C        0.94200    0.16880    0.49480    1.000
    H25      H        0.88920    0.12510    0.50370    1.000
    C40      C        0.01310    0.16180    0.43800    1.000
    H26      H        0.00650    0.11310    0.40750    1.000
    N7       N        0.09090    0.22034    0.42383    1.000
    C41      C        0.10070    0.28670    0.46880    1.000
    H27      H        0.15750    0.32750    0.46100    1.000
    C42      C        0.03170    0.29880    0.52630    1.000
    H28      H        0.04130    0.34690    0.55710    1.000
    N8       N        0.61440    0.15393    0.72228    1.000
    C43      C        0.63870    0.07780    0.69129    1.000
    H29      H        0.69600    0.07650    0.65730    1.000
    C44      C        0.58450    0.00110    0.70647    1.000
    H30      H        0.60430    0.94870    0.68350    1.000
    C45      C        0.50030    0.00290    0.75604    1.000
    C46      C        0.47570    0.08100    0.78936    1.000
    H31      H        0.41960    0.08400    0.82410    1.000
    C47      C        0.53470    0.15450    0.77080    1.000
    H32      H        0.51760    0.20760    0.79370    1.000
    C48      C        0.43590    0.92250    0.77422    1.000
    O15      O        0.47457    0.84978    0.75810    1.000
    O16      O        0.34706    0.93192    0.80607    1.000
    Cd5      Cd       0.80750    0.78465    0.68396    1.000
    O17      O        0.65170    0.83032    0.61643    1.000
    O18      O        0.68740    0.68989    0.61763    1.000
    C49      C        0.63510    0.75410    0.59546    1.000
    C50      C        0.55100    0.74020    0.53814    1.000
    C51      C        0.55800    0.66880    0.49480    1.000
    H33      H        0.61080    0.62510    0.50370    1.000
    C52      C        0.48690    0.66180    0.43800    1.000
    H34      H        0.49350    0.61310    0.40750    1.000
    N9       N        0.40910    0.72034    0.42383    1.000
    C53      C        0.39930    0.78670    0.46880    1.000
    H35      H        0.34250    0.82750    0.46100    1.000
    C54      C        0.46830    0.79880    0.52630    1.000
    H36      H        0.45870    0.84690    0.55710    1.000
    N10      N        0.88560    0.65393    0.72228    1.000
    C55      C        0.86130    0.57780    0.69129    1.000
    H37      H        0.80400    0.57650    0.65730    1.000
    C56      C        0.91550    0.50110    0.70647    1.000
    H38      H        0.89570    0.44870    0.68350    1.000
    C57      C        0.99970    0.50290    0.75604    1.000
    C58      C        0.02430    0.58100    0.78936    1.000
    H39      H        0.08040    0.58400    0.82410    1.000
    C59      C        0.96530    0.65450    0.77080    1.000
    H40      H        0.98240    0.70760    0.79370    1.000
    C60      C        0.06410    0.42250    0.77422    1.000
    O19      O        0.02543    0.34978    0.75810    1.000
    O20      O        0.15294    0.43192    0.80607    1.000
    Cd6      Cd       0.69250    0.21535    0.18396    1.000
    O21      O        0.84830    0.16968    0.11643    1.000
    O22      O        0.81260    0.31011    0.11763    1.000
    C61      C        0.86490    0.24590    0.09546    1.000
    C62      C        0.94900    0.25980    0.03814    1.000
    C63      C        0.94200    0.33120    0.99480    1.000
    H41      H        0.88920    0.37490    0.00370    1.000
    C64      C        0.01310    0.33820    0.93800    1.000
    H42      H        0.00650    0.38690    0.90750    1.000
    N11      N        0.09090    0.27966    0.92383    1.000
    C65      C        0.10070    0.21330    0.96880    1.000
    H43      H        0.15750    0.17250    0.96100    1.000
    C66      C        0.03170    0.20120    0.02630    1.000
    H44      H        0.04130    0.15310    0.05710    1.000
    N12      N        0.61440    0.34607    0.22228    1.000
    C67      C        0.63870    0.42220    0.19129    1.000
    H45      H        0.69600    0.42350    0.15730    1.000
    C68      C        0.58450    0.49890    0.20647    1.000
    H46      H        0.60430    0.55130    0.18350    1.000
    C69      C        0.50030    0.49710    0.25604    1.000
    C70      C        0.47570    0.41900    0.28936    1.000
    H47      H        0.41960    0.41600    0.32410    1.000
    C71      C        0.53470    0.34550    0.27080    1.000
    H48      H        0.51760    0.29240    0.29370    1.000
    C72      C        0.43590    0.57750    0.27422    1.000
    O23      O        0.47457    0.65022    0.25810    1.000
    O24      O        0.34706    0.56808    0.30607    1.000
    Cd7      Cd       0.19250    0.28465    0.81604    1.000
    O25      O        0.34830    0.33032    0.88357    1.000
    O26      O        0.31260    0.18989    0.88237    1.000
    C73      C        0.36490    0.25410    0.90454    1.000
    C74      C        0.44900    0.24020    0.96186    1.000
    C75      C        0.44200    0.16880    0.00520    1.000
    H49      H        0.38920    0.12510    0.99630    1.000
    C76      C        0.51310    0.16180    0.06200    1.000
    H50      H        0.50650    0.11310    0.09250    1.000
    N13      N        0.59090    0.22034    0.07617    1.000
    C77      C        0.60070    0.28670    0.03120    1.000
    H51      H        0.65750    0.32750    0.03900    1.000
    C78      C        0.53170    0.29880    0.97370    1.000
    H52      H        0.54130    0.34690    0.94290    1.000
    N14      N        0.11440    0.15393    0.77772    1.000
    C79      C        0.13870    0.07780    0.80871    1.000
    H53      H        0.19600    0.07650    0.84270    1.000
    C80      C        0.08450    0.00110    0.79353    1.000
    H54      H        0.10430    0.94870    0.81650    1.000
    C81      C        0.00030    0.00290    0.74396    1.000
    C82      C        0.97570    0.08100    0.71064    1.000
    H55      H        0.91960    0.08400    0.67590    1.000
    C83      C        0.03470    0.15450    0.72920    1.000
    H56      H        0.01760    0.20760    0.70630    1.000
    C84      C        0.93590    0.92250    0.72578    1.000
    O27      O        0.97457    0.84978    0.74190    1.000
    O28      O        0.84706    0.93192    0.69393    1.000
    Cd8      Cd       0.30750    0.71535    0.31604    1.000
    O29      O        0.15170    0.66968    0.38357    1.000
    O30      O        0.18740    0.81011    0.38237    1.000
    C85      C        0.13510    0.74590    0.40454    1.000
    C86      C        0.05100    0.75980    0.46186    1.000
    C87      C        0.05800    0.83120    0.50520    1.000
    H57      H        0.11080    0.87490    0.49630    1.000
    C88      C        0.98690    0.83820    0.56200    1.000
    H58      H        0.99350    0.88690    0.59250    1.000
    N15      N        0.90910    0.77966    0.57617    1.000
    C89      C        0.89930    0.71330    0.53120    1.000
    H59      H        0.84250    0.67250    0.53900    1.000
    C90      C        0.96830    0.70120    0.47370    1.000
    H60      H        0.95870    0.65310    0.44290    1.000
    N16      N        0.38560    0.84607    0.27772    1.000
    C91      C        0.36130    0.92220    0.30871    1.000
    H61      H        0.30400    0.92350    0.34270    1.000
    C92      C        0.41550    0.99890    0.29353    1.000
    H62      H        0.39570    0.05130    0.31650    1.000
    C93      C        0.49970    0.99710    0.24396    1.000
    C94      C        0.52430    0.91900    0.21064    1.000
    H63      H        0.58040    0.91600    0.17590    1.000
    C95      C        0.46530    0.84550    0.22920    1.000
    H64      H        0.48240    0.79240    0.20630    1.000
    C96      C        0.56410    0.07750    0.22578    1.000
    O31      O        0.52543    0.15022    0.24190    1.000
    O32      O        0.65294    0.06808    0.19393    1.000
