# CIF file generated by openbabel 3.1.0, see https://openbabel.org
data_I
_chemical_name_common 'image0'
_cell_length_a 9.4916
_cell_length_b 22.4131
_cell_length_c 10.1084
_cell_angle_alpha 90
_cell_angle_beta 102.5
_cell_angle_gamma 90
_space_group_name_H-M_alt 'P 1'
_space_group_name_Hall 'P 1'
loop_
    _symmetry_equiv_pos_as_xyz
    x,y,z
loop_
    _atom_site_label
    _atom_site_type_symbol
    _atom_site_fract_x
    _atom_site_fract_y
    _atom_site_fract_z
    _atom_site_occupancy
    Tb1      Tb       0.71840    0.43434    0.85995    1.000
    Tb2      Tb       0.24869    0.27656    0.04949    1.000
    N1       N        0.59950    0.41505    0.62610    1.000
    N2       N        0.53270    0.41333    0.40470    1.000
    H1       H        0.52723    0.42256    0.32118    1.000
    N3       N        0.77500    0.50784    0.64610    1.000
    O1       O        0.06640    0.33749    0.11130    1.000
    O2       O        0.03120    0.28688    0.86830    1.000
    O3       O        0.82950    0.34106    0.79660    1.000
    O4       O        0.85070    0.38060    0.05040    1.000
    O5       O        0.52300    0.36048    0.82180    1.000
    O6       O        0.37940    0.29552    0.69350    1.000
    O7       O        0.27560    0.29407    0.39280    1.000
    O8       O        0.36630    0.33668    0.23100    1.000
    O9       O        0.60170    0.43646    0.05210    1.000
    O10      O        0.46900    0.49137    0.16340    1.000
    O11      O        0.97600    0.44801    0.86970    1.000
    O12      O        0.17850    0.48189    0.00200    1.000
    C1       C        0.45500    0.36906    0.45070    1.000
    C2       C        0.49900    0.37105    0.59010    1.000
    C3       C        0.61840    0.43977    0.51190    1.000
    C4       C        0.72150    0.48878    0.51740    1.000
    C5       C        0.76350    0.51230    0.40550    1.000
    H2       H        0.72747    0.49715    0.31908    1.000
    C6       C        0.86170    0.55950    0.42650    1.000
    H3       H        0.89227    0.57687    0.35401    1.000
    C7       C        0.91250    0.57990    0.55650    1.000
    H4       H        0.97602    0.61198    0.57268    1.000
    C8       C        0.86900    0.55250    0.66150    1.000
    H5       H        0.90732    0.56601    0.74895    1.000
    C9       C        0.35720    0.33021    0.35200    1.000
    C10      C        0.46200    0.33872    0.70680    1.000
    C11      C        0.52020    0.47895    0.06170    1.000
    C12      C        0.04420    0.47999    0.96200    1.000
    C13      C        0.95260    0.34885    0.02920    1.000
    C14      C        0.93510    0.32319    0.88440    1.000
    Tb3      Tb       0.28160    0.93434    0.64005    1.000
    Tb4      Tb       0.75131    0.77656    0.45051    1.000
    N4       N        0.40050    0.91505    0.87390    1.000
    N5       N        0.46730    0.91333    0.09530    1.000
    H6       H        0.47277    0.92256    0.17882    1.000
    N6       N        0.22500    0.00784    0.85390    1.000
    O13      O        0.93360    0.83749    0.38870    1.000
    O14      O        0.96880    0.78688    0.63170    1.000
    O15      O        0.17050    0.84106    0.70340    1.000
    O16      O        0.14930    0.88060    0.44960    1.000
    O17      O        0.47700    0.86048    0.67820    1.000
    O18      O        0.62060    0.79552    0.80650    1.000
    O19      O        0.72440    0.79407    0.10720    1.000
    O20      O        0.63370    0.83668    0.26900    1.000
    O21      O        0.39830    0.93646    0.44790    1.000
    O22      O        0.53100    0.99137    0.33660    1.000
    O23      O        0.02400    0.94801    0.63030    1.000
    O24      O        0.82150    0.98189    0.49800    1.000
    C15      C        0.54500    0.86906    0.04930    1.000
    C16      C        0.50100    0.87105    0.90990    1.000
    C17      C        0.38160    0.93977    0.98810    1.000
    C18      C        0.27850    0.98878    0.98260    1.000
    C19      C        0.23650    0.01230    0.09450    1.000
    H7       H        0.27253    0.99715    0.18092    1.000
    C20      C        0.13830    0.05950    0.07350    1.000
    H8       H        0.10773    0.07687    0.14599    1.000
    C21      C        0.08750    0.07990    0.94350    1.000
    H9       H        0.02398    0.11198    0.92732    1.000
    C22      C        0.13100    0.05250    0.83850    1.000
    H10      H        0.09268    0.06601    0.75105    1.000
    C23      C        0.64280    0.83021    0.14800    1.000
    C24      C        0.53800    0.83872    0.79320    1.000
    C25      C        0.47980    0.97895    0.43830    1.000
    C26      C        0.95580    0.97999    0.53800    1.000
    C27      C        0.04740    0.84885    0.47080    1.000
    C28      C        0.06490    0.82319    0.61560    1.000
    Tb5      Tb       0.28160    0.56566    0.14005    1.000
    Tb6      Tb       0.75131    0.72344    0.95051    1.000
    N7       N        0.40050    0.58495    0.37390    1.000
    N8       N        0.46730    0.58667    0.59530    1.000
    H11      H        0.47277    0.57744    0.67882    1.000
    N9       N        0.22500    0.49216    0.35390    1.000
    O25      O        0.93360    0.66251    0.88870    1.000
    O26      O        0.96880    0.71312    0.13170    1.000
    O27      O        0.17050    0.65894    0.20340    1.000
    O28      O        0.14930    0.61940    0.94960    1.000
    O29      O        0.47700    0.63952    0.17820    1.000
    O30      O        0.62060    0.70448    0.30650    1.000
    O31      O        0.72440    0.70593    0.60720    1.000
    O32      O        0.63370    0.66332    0.76900    1.000
    O33      O        0.39830    0.56354    0.94790    1.000
    O34      O        0.53100    0.50863    0.83660    1.000
    O35      O        0.02400    0.55199    0.13030    1.000
    O36      O        0.82150    0.51811    0.99800    1.000
    C29      C        0.54500    0.63094    0.54930    1.000
    C30      C        0.50100    0.62895    0.40990    1.000
    C31      C        0.38160    0.56023    0.48810    1.000
    C32      C        0.27850    0.51122    0.48260    1.000
    C33      C        0.23650    0.48770    0.59450    1.000
    H12      H        0.27253    0.50285    0.68092    1.000
    C34      C        0.13830    0.44050    0.57350    1.000
    H13      H        0.10773    0.42313    0.64599    1.000
    C35      C        0.08750    0.42010    0.44350    1.000
    H14      H        0.02398    0.38802    0.42732    1.000
    C36      C        0.13100    0.44750    0.33850    1.000
    H15      H        0.09268    0.43399    0.25105    1.000
    C37      C        0.64280    0.66979    0.64800    1.000
    C38      C        0.53800    0.66128    0.29320    1.000
    C39      C        0.47980    0.52105    0.93830    1.000
    C40      C        0.95580    0.52001    0.03800    1.000
    C41      C        0.04740    0.65115    0.97080    1.000
    C42      C        0.06490    0.67681    0.11560    1.000
    Tb7      Tb       0.71840    0.06566    0.35995    1.000
    Tb8      Tb       0.24869    0.22344    0.54949    1.000
    N10      N        0.59950    0.08495    0.12610    1.000
    N11      N        0.53270    0.08667    0.90470    1.000
    H16      H        0.52723    0.07744    0.82118    1.000
    N12      N        0.77500    0.99216    0.14610    1.000
    O37      O        0.06640    0.16251    0.61130    1.000
    O38      O        0.03120    0.21312    0.36830    1.000
    O39      O        0.82950    0.15894    0.29660    1.000
    O40      O        0.85070    0.11940    0.55040    1.000
    O41      O        0.52300    0.13952    0.32180    1.000
    O42      O        0.37940    0.20448    0.19350    1.000
    O43      O        0.27560    0.20593    0.89280    1.000
    O44      O        0.36630    0.16332    0.73100    1.000
    O45      O        0.60170    0.06354    0.55210    1.000
    O46      O        0.46900    0.00863    0.66340    1.000
    O47      O        0.97600    0.05199    0.36970    1.000
    O48      O        0.17850    0.01811    0.50200    1.000
    C43      C        0.45500    0.13094    0.95070    1.000
    C44      C        0.49900    0.12895    0.09010    1.000
    C45      C        0.61840    0.06023    0.01190    1.000
    C46      C        0.72150    0.01122    0.01740    1.000
    C47      C        0.76350    0.98770    0.90550    1.000
    H17      H        0.72747    0.00285    0.81908    1.000
    C48      C        0.86170    0.94050    0.92650    1.000
    H18      H        0.89227    0.92313    0.85401    1.000
    C49      C        0.91250    0.92010    0.05650    1.000
    H19      H        0.97602    0.88802    0.07268    1.000
    C50      C        0.86900    0.94750    0.16150    1.000
    H20      H        0.90732    0.93399    0.24895    1.000
    C51      C        0.35720    0.16979    0.85200    1.000
    C52      C        0.46200    0.16128    0.20680    1.000
    C53      C        0.52020    0.02105    0.56170    1.000
    C54      C        0.04420    0.02001    0.46200    1.000
    C55      C        0.95260    0.15115    0.52920    1.000
    C56      C        0.93510    0.17681    0.38440    1.000
