# CIF file generated by openbabel 3.1.0, see https://openbabel.org
data_I
_chemical_name_common 'image0'
_cell_length_a 12.3431
_cell_length_b 12.9544
_cell_length_c 19.3934
_cell_angle_alpha 90
_cell_angle_beta 91.944
_cell_angle_gamma 90
_space_group_name_H-M_alt 'P 1'
_space_group_name_Hall 'P 1'
loop_
    _symmetry_equiv_pos_as_xyz
    x,y,z
loop_
    _atom_site_label
    _atom_site_type_symbol
    _atom_site_fract_x
    _atom_site_fract_y
    _atom_site_fract_z
    _atom_site_occupancy
    Nb1      Nb       0.10101    0.89969    0.05461    1.000
    Cl1      Cl       0.97285    0.75622    0.06822    1.000
    N1       N        0.21180    0.79410    0.11350    1.000
    Nb2      Nb       0.12477    0.10701    0.99601    1.000
    Cl2      Cl       0.17676    0.80728    0.95662    1.000
    Nb3      Nb       0.95200    0.06401    0.09113    1.000
    Cl3      Cl       0.26537    0.00714    0.05895    1.000
    Cl4      Cl       0.06079    0.95721    0.17169    1.000
    C1       C        0.27930    0.75260    0.14580    1.000
    N2       N        0.26060    0.21800    0.99170    1.000
    Cl5      Cl       0.20176    0.05008    0.88721    1.000
    Cl6      Cl       0.09085    0.20022    0.10345    1.000
    N3       N        0.89880    0.13380    0.18810    1.000
    S1       S        0.37418    0.69596    0.19265    1.000
    C2       C        0.34080    0.26250    0.98400    1.000
    C3       C        0.86420    0.17580    0.23480    1.000
    Cu1      Cu       0.51976    0.76125    0.13537    1.000
    S2       S        0.45543    0.32258    0.97174    1.000
    S3       S        0.81592    0.23879    0.29988    1.000
    N4       N        0.51650    0.91260    0.11640    1.000
    C4       C        0.52910    0.99680    0.10220    1.000
    C5       C        0.54340    0.10390    0.08330    1.000
    H1       H        0.60280    0.13390    0.11150    1.000
    H2       H        0.47640    0.14210    0.09110    1.000
    H3       H        0.56080    0.10830    0.03440    1.000
    Nb4      Nb       0.39899    0.39969    0.44539    1.000
    Cl7      Cl       0.52715    0.25622    0.43178    1.000
    N5       N        0.28820    0.29410    0.38650    1.000
    Nb5      Nb       0.37523    0.60701    0.50399    1.000
    Cl8      Cl       0.32324    0.30728    0.54338    1.000
    Nb6      Nb       0.54800    0.56401    0.40887    1.000
    Cl9      Cl       0.23463    0.50714    0.44105    1.000
    Cl10     Cl       0.43921    0.45721    0.32831    1.000
    C6       C        0.22070    0.25260    0.35420    1.000
    N6       N        0.23940    0.71800    0.50830    1.000
    Cl11     Cl       0.29824    0.55008    0.61279    1.000
    Cl12     Cl       0.40915    0.70022    0.39655    1.000
    N7       N        0.60120    0.63380    0.31190    1.000
    S4       S        0.12582    0.19596    0.30735    1.000
    C7       C        0.15920    0.76250    0.51600    1.000
    C8       C        0.63580    0.67580    0.26520    1.000
    Cu2      Cu       0.98024    0.26125    0.36463    1.000
    S5       S        0.04457    0.82258    0.52826    1.000
    S6       S        0.68408    0.73879    0.20012    1.000
    N8       N        0.98350    0.41260    0.38360    1.000
    C9       C        0.97090    0.49680    0.39780    1.000
    C10      C        0.95660    0.60390    0.41670    1.000
    H4       H        0.89720    0.63390    0.38850    1.000
    H5       H        0.02360    0.64210    0.40890    1.000
    H6       H        0.93920    0.60830    0.46560    1.000
    Nb7      Nb       0.89899    0.10031    0.94539    1.000
    Cl13     Cl       0.02715    0.24378    0.93178    1.000
    N9       N        0.78820    0.20590    0.88650    1.000
    Nb8      Nb       0.87523    0.89299    0.00399    1.000
    Cl14     Cl       0.82324    0.19272    0.04338    1.000
    Nb9      Nb       0.04800    0.93599    0.90887    1.000
    Cl15     Cl       0.73463    0.99286    0.94105    1.000
    Cl16     Cl       0.93921    0.04279    0.82831    1.000
    C11      C        0.72070    0.24740    0.85420    1.000
    N10      N        0.73940    0.78200    0.00830    1.000
    Cl17     Cl       0.79824    0.94992    0.11279    1.000
    Cl18     Cl       0.90915    0.79978    0.89655    1.000
    N11      N        0.10120    0.86620    0.81190    1.000
    S7       S        0.62582    0.30404    0.80735    1.000
    C12      C        0.65920    0.73750    0.01600    1.000
    C13      C        0.13580    0.82420    0.76520    1.000
    Cu3      Cu       0.48024    0.23875    0.86463    1.000
    S8       S        0.54457    0.67742    0.02826    1.000
    S9       S        0.18408    0.76121    0.70012    1.000
    N12      N        0.48350    0.08740    0.88360    1.000
    C14      C        0.47090    0.00320    0.89780    1.000
    C15      C        0.45660    0.89610    0.91670    1.000
    H7       H        0.39720    0.86610    0.88850    1.000
    H8       H        0.52360    0.85790    0.90890    1.000
    H9       H        0.43920    0.89170    0.96560    1.000
    Nb10     Nb       0.60101    0.60031    0.55461    1.000
    Cl19     Cl       0.47285    0.74378    0.56822    1.000
    N13      N        0.71180    0.70590    0.61350    1.000
    Nb11     Nb       0.62477    0.39299    0.49601    1.000
    Cl20     Cl       0.67676    0.69272    0.45662    1.000
    Nb12     Nb       0.45200    0.43599    0.59113    1.000
    Cl21     Cl       0.76537    0.49286    0.55895    1.000
    Cl22     Cl       0.56079    0.54279    0.67169    1.000
    C16      C        0.77930    0.74740    0.64580    1.000
    N14      N        0.76060    0.28200    0.49170    1.000
    Cl23     Cl       0.70176    0.44992    0.38721    1.000
    Cl24     Cl       0.59085    0.29978    0.60345    1.000
    N15      N        0.39880    0.36620    0.68810    1.000
    S10      S        0.87418    0.80404    0.69265    1.000
    C17      C        0.84080    0.23750    0.48400    1.000
    C18      C        0.36420    0.32420    0.73480    1.000
    Cu4      Cu       0.01976    0.73875    0.63537    1.000
    S11      S        0.95543    0.17742    0.47174    1.000
    S12      S        0.31592    0.26121    0.79988    1.000
    N16      N        0.01650    0.58740    0.61640    1.000
    C19      C        0.02910    0.50320    0.60220    1.000
    C20      C        0.04340    0.39610    0.58330    1.000
    H10      H        0.10280    0.36610    0.61150    1.000
    H11      H        0.97640    0.35790    0.59110    1.000
    H12      H        0.06080    0.39170    0.53440    1.000
