# CIF file generated by openbabel 3.1.0, see https://openbabel.org
data_I
_chemical_name_common 'CETFUD_clean'
_cell_length_a 7.7447
_cell_length_b 10.1935
_cell_length_c 12.1464
_cell_angle_alpha 80.751
_cell_angle_beta 80.287
_cell_angle_gamma 82.818
_space_group_name_H-M_alt 'P 1'
_space_group_name_Hall 'P 1'
loop_
    _symmetry_equiv_pos_as_xyz
    x,y,z
loop_
    _atom_site_label
    _atom_site_type_symbol
    _atom_site_fract_x
    _atom_site_fract_y
    _atom_site_fract_z
    _atom_site_occupancy
    Pr1      Pr       0.73908    0.00999    0.55898    1.000
    Pr2      Pr       0.26092    0.99001    0.44102    1.000
    H1       H        0.13560    0.58510    0.45530    1.000
    H2       H        0.07910    0.48280    0.38770    1.000
    H3       H        0.80870    0.77660    0.23860    1.000
    H4       H        0.99870    0.70870    0.24990    1.000
    H5       H        0.95630    0.84180    0.88400    1.000
    H6       H        0.15710    0.81600    0.89400    1.000
    H7       H        0.89080    0.68990    0.04650    1.000
    H8       H        0.09140    0.65760    0.05550    1.000
    H9       H        0.90760    0.91230    0.07900    1.000
    H10      H        0.10440    0.87230    0.09620    1.000
    H11      H        0.46040    0.44880    0.42370    1.000
    H12      H        0.37480    0.35800    0.35930    1.000
    H13      H        0.24520    0.41450    0.58160    1.000
    H14      H        0.16860    0.30760    0.52940    1.000
    H15      H        0.15560    0.59300    0.86170    1.000
    H16      H        0.95740    0.62440    0.84570    1.000
    H17      H        0.16130    0.63000    0.67350    1.000
    H18      H        0.22470    0.75870    0.70210    1.000
    H19      H        0.86440    0.41490    0.54470    1.000
    H20      H        0.92090    0.51720    0.61230    1.000
    H21      H        0.19130    0.22340    0.76140    1.000
    H22      H        0.00130    0.29130    0.75010    1.000
    H23      H        0.04370    0.15820    0.11600    1.000
    H24      H        0.84290    0.18400    0.10600    1.000
    H25      H        0.10920    0.31010    0.95350    1.000
    H26      H        0.90860    0.34240    0.94450    1.000
    H27      H        0.09240    0.08770    0.92100    1.000
    H28      H        0.89560    0.12770    0.90380    1.000
    H29      H        0.53960    0.55120    0.57630    1.000
    H30      H        0.62520    0.64200    0.64070    1.000
    H31      H        0.75480    0.58550    0.41840    1.000
    H32      H        0.83140    0.69240    0.47060    1.000
    H33      H        0.84440    0.40700    0.13830    1.000
    H34      H        0.04260    0.37560    0.15430    1.000
    H35      H        0.83870    0.37000    0.32650    1.000
    H36      H        0.77530    0.24130    0.29790    1.000
    C1       C        0.50680    0.24990    0.48190    1.000
    C2       C        0.95070    0.88850    0.30710    1.000
    C3       C        0.09120    0.49880    0.46250    1.000
    C4       C        0.93150    0.79300    0.22840    1.000
    C5       C        0.04810    0.77440    0.90750    1.000
    C6       C        0.00260    0.72780    0.03260    1.000
    C7       C        0.99010    0.83910    0.10530    1.000
    C8       C        0.39710    0.37040    0.43290    1.000
    C9       C        0.22160    0.39130    0.51160    1.000
    C10      C        0.06850    0.66270    0.83550    1.000
    C11      C        0.12380    0.70830    0.71080    1.000
    C12      C        0.98250    0.79360    0.65160    1.000
    C13      C        0.49320    0.75010    0.51810    1.000
    C14      C        0.04930    0.11150    0.69290    1.000
    C15      C        0.90880    0.50120    0.53750    1.000
    C16      C        0.06850    0.20700    0.77160    1.000
    C17      C        0.95190    0.22560    0.09250    1.000
    C18      C        0.99740    0.27220    0.96740    1.000
    C19      C        0.00990    0.16090    0.89470    1.000
    C20      C        0.60290    0.62960    0.56710    1.000
    C21      C        0.77840    0.60870    0.48840    1.000
    C22      C        0.93150    0.33730    0.16450    1.000
    C23      C        0.87620    0.29170    0.28920    1.000
    C24      C        0.01750    0.20640    0.34840    1.000
    O1       O        0.81150    0.93760    0.36340    1.000
    O2       O        0.61280    0.26030    0.54520    1.000
    O3       O        0.48800    0.13510    0.45800    1.000
    O4       O        0.82370    0.79870    0.69560    1.000
    O5       O        0.10310    0.91360    0.31210    1.000
    O6       O        0.02910    0.85930    0.55440    1.000
    O7       O        0.18850    0.06240    0.63660    1.000
    O8       O        0.38720    0.73970    0.45480    1.000
    O9       O        0.51200    0.86490    0.54200    1.000
    O10      O        0.17630    0.20130    0.30440    1.000
    O11      O        0.89690    0.08640    0.68790    1.000
    O12      O        0.97090    0.14070    0.44560    1.000
