# CIF file generated by openbabel 3.1.0, see https://openbabel.org
data_I
_chemical_name_common 'image0'
_cell_length_a 15.078
_cell_length_b 15.078
_cell_length_c 5.7
_cell_angle_alpha 90
_cell_angle_beta 90
_cell_angle_gamma 90
_space_group_name_H-M_alt 'P 1'
_space_group_name_Hall 'P 1'
loop_
    _symmetry_equiv_pos_as_xyz
    x,y,z
loop_
    _atom_site_label
    _atom_site_type_symbol
    _atom_site_fract_x
    _atom_site_fract_y
    _atom_site_fract_z
    _atom_site_occupancy
    H1       H        0.70220    0.30240    0.41650    1.000
    H2       H        0.20220    0.80240    0.91650    1.000
    H3       H        0.79780    0.69760    0.91650    1.000
    H4       H        0.29780    0.19760    0.41650    1.000
    H5       H        0.94760    0.45220    0.66650    1.000
    H6       H        0.44760    0.95220    0.16650    1.000
    H7       H        0.55240    0.54780    0.16650    1.000
    H8       H        0.05240    0.04780    0.66650    1.000
    H9       H        0.79780    0.30240    0.08350    1.000
    H10      H        0.29780    0.80240    0.58350    1.000
    H11      H        0.70220    0.69760    0.58350    1.000
    H12      H        0.20220    0.19760    0.08350    1.000
    H13      H        0.55240    0.45220    0.83350    1.000
    H14      H        0.05240    0.95220    0.33350    1.000
    H15      H        0.94760    0.54780    0.33350    1.000
    H16      H        0.44760    0.04780    0.83350    1.000
    H17      H        0.29780    0.69760    0.58350    1.000
    H18      H        0.79780    0.19760    0.08350    1.000
    H19      H        0.20220    0.30240    0.08350    1.000
    H20      H        0.70220    0.80240    0.58350    1.000
    H21      H        0.05240    0.54780    0.33350    1.000
    H22      H        0.55240    0.04780    0.83350    1.000
    H23      H        0.44760    0.45220    0.83350    1.000
    H24      H        0.94760    0.95220    0.33350    1.000
    H25      H        0.20220    0.69760    0.91650    1.000
    H26      H        0.70220    0.19760    0.41650    1.000
    H27      H        0.29780    0.30240    0.41650    1.000
    H28      H        0.79780    0.80240    0.91650    1.000
    H29      H        0.44760    0.54780    0.16650    1.000
    H30      H        0.94760    0.04780    0.66650    1.000
    H31      H        0.05240    0.45220    0.66650    1.000
    H32      H        0.55240    0.95220    0.16650    1.000
    Ag1      Ag       0.00000    0.25000    0.87500    1.000
    Ag2      Ag       0.50000    0.75000    0.37500    1.000
    Ag3      Ag       0.00000    0.75000    0.12500    1.000
    Ag4      Ag       0.50000    0.25000    0.62500    1.000
    N1       N        0.88300    0.25000    0.62800    1.000
    C1       C        0.82300    0.25000    0.50000    1.000
    C2       C        0.73700    0.25000    0.37800    1.000
    N2       N        0.61700    0.75000    0.12800    1.000
    C3       C        0.67700    0.75000    0.00000    1.000
    C4       C        0.76300    0.75000    0.87800    1.000
    N3       N        0.00000    0.63300    0.87800    1.000
    C5       C        0.00000    0.57300    0.75000    1.000
    C6       C        0.00000    0.48700    0.62800    1.000
    N4       N        0.50000    0.13300    0.37800    1.000
    C7       C        0.50000    0.07300    0.25000    1.000
    C8       C        0.50000    0.98700    0.12800    1.000
    N5       N        0.50000    0.36700    0.37800    1.000
    C9       C        0.50000    0.42700    0.25000    1.000
    C10      C        0.50000    0.51300    0.12800    1.000
    N6       N        0.00000    0.86700    0.87800    1.000
    C11      C        0.00000    0.92700    0.75000    1.000
    C12      C        0.00000    0.01300    0.62800    1.000
    N7       N        0.61700    0.25000    0.87200    1.000
    C13      C        0.67700    0.25000    0.00000    1.000
    C14      C        0.76300    0.25000    0.12200    1.000
    N8       N        0.88300    0.75000    0.37200    1.000
    C15      C        0.82300    0.75000    0.50000    1.000
    C16      C        0.73700    0.75000    0.62200    1.000
    N9       N        0.38300    0.25000    0.87200    1.000
    C17      C        0.32300    0.25000    0.00000    1.000
    C18      C        0.23700    0.25000    0.12200    1.000
    N10      N        0.50000    0.63300    0.62200    1.000
    C19      C        0.50000    0.57300    0.75000    1.000
    C20      C        0.50000    0.48700    0.87200    1.000
    N11      N        0.00000    0.13300    0.12200    1.000
    C21      C        0.00000    0.07300    0.25000    1.000
    C22      C        0.00000    0.98700    0.37200    1.000
    N12      N        0.00000    0.36700    0.12200    1.000
    C23      C        0.00000    0.42700    0.25000    1.000
    C24      C        0.00000    0.51300    0.37200    1.000
    N13      N        0.50000    0.86700    0.62200    1.000
    C25      C        0.50000    0.92700    0.75000    1.000
    C26      C        0.50000    0.01300    0.87200    1.000
    N14      N        0.11700    0.75000    0.37200    1.000
    C27      C        0.17700    0.75000    0.50000    1.000
    C28      C        0.26300    0.75000    0.62200    1.000
    N15      N        0.38300    0.75000    0.12800    1.000
    C29      C        0.32300    0.75000    0.00000    1.000
    C30      C        0.23700    0.75000    0.87800    1.000
    N16      N        0.11700    0.25000    0.62800    1.000
    C31      C        0.17700    0.25000    0.50000    1.000
    C32      C        0.26300    0.25000    0.37800    1.000
