# CIF file generated by openbabel 3.1.0, see https://openbabel.org
data_I
_chemical_name_common 'image0'
_cell_length_a 6.7668
_cell_length_b 18.7189
_cell_length_c 8.5717
_cell_angle_alpha 90
_cell_angle_beta 90
_cell_angle_gamma 90
_space_group_name_H-M_alt 'P 1'
_space_group_name_Hall 'P 1'
loop_
    _symmetry_equiv_pos_as_xyz
    x,y,z
loop_
    _atom_site_label
    _atom_site_type_symbol
    _atom_site_fract_x
    _atom_site_fract_y
    _atom_site_fract_z
    _atom_site_occupancy
    O1       O        0.98430    0.54905    0.93270    1.000
    O2       O        0.33730    0.59341    0.77040    1.000
    O3       O        0.82290    0.68295    0.98440    1.000
    O4       O        0.68240    0.75652    0.15280    1.000
    C1       C        0.76660    0.74251    0.02770    1.000
    H1       H        0.78940    0.78050    0.96020    1.000
    O5       O        0.48430    0.04905    0.93270    1.000
    O6       O        0.83730    0.09341    0.77040    1.000
    O7       O        0.32290    0.18295    0.98440    1.000
    O8       O        0.18240    0.25652    0.15280    1.000
    C2       C        0.26660    0.24251    0.02770    1.000
    H2       H        0.28940    0.28050    0.96020    1.000
    O9       O        0.01570    0.45095    0.43270    1.000
    O10      O        0.66270    0.40659    0.27040    1.000
    O11      O        0.17710    0.31705    0.48440    1.000
    O12      O        0.31760    0.24348    0.65280    1.000
    C3       C        0.23340    0.25749    0.52770    1.000
    H3       H        0.21060    0.21950    0.46020    1.000
    O13      O        0.51570    0.95095    0.43270    1.000
    O14      O        0.16270    0.90659    0.27040    1.000
    O15      O        0.67710    0.81705    0.48440    1.000
    O16      O        0.81760    0.74348    0.65280    1.000
    C4       C        0.73340    0.75749    0.52770    1.000
    H4       H        0.71060    0.71950    0.46020    1.000
    O17      O        0.01570    0.54905    0.56730    1.000
    O18      O        0.66270    0.59341    0.72960    1.000
    O19      O        0.17710    0.68295    0.51560    1.000
    O20      O        0.31760    0.75652    0.34720    1.000
    C5       C        0.23340    0.74251    0.47230    1.000
    H5       H        0.21060    0.78050    0.53980    1.000
    O21      O        0.51570    0.04905    0.56730    1.000
    O22      O        0.16270    0.09341    0.72960    1.000
    O23      O        0.67710    0.18295    0.51560    1.000
    O24      O        0.81760    0.25652    0.34720    1.000
    C6       C        0.73340    0.24251    0.47230    1.000
    H6       H        0.71060    0.28050    0.53980    1.000
    O25      O        0.98430    0.45095    0.06730    1.000
    O26      O        0.33730    0.40659    0.22960    1.000
    O27      O        0.82290    0.31705    0.01560    1.000
    O28      O        0.68240    0.24348    0.84720    1.000
    C7       C        0.76660    0.25749    0.97230    1.000
    H7       H        0.78940    0.21950    0.03980    1.000
    O29      O        0.48430    0.95095    0.06730    1.000
    O30      O        0.83730    0.90659    0.22960    1.000
    O31      O        0.32290    0.81705    0.01560    1.000
    O32      O        0.18240    0.74348    0.84720    1.000
    C8       C        0.26660    0.75749    0.97230    1.000
    H8       H        0.28940    0.71950    0.03980    1.000
    Sm1      Sm       0.00000    0.64250    0.75000    1.000
    Sm2      Sm       0.50000    0.14250    0.75000    1.000
    Sm3      Sm       0.00000    0.35750    0.25000    1.000
    Sm4      Sm       0.50000    0.85750    0.25000    1.000
    C9       C        0.50000    0.62371    0.75000    1.000
    H9       H        0.50000    0.67340    0.75000    1.000
    C10      C        0.00000    0.12371    0.75000    1.000
    H10      H        0.00000    0.17340    0.75000    1.000
    C11      C        0.50000    0.37629    0.25000    1.000
    H11      H        0.50000    0.32660    0.25000    1.000
    C12      C        0.00000    0.87629    0.25000    1.000
    H12      H        0.00000    0.82660    0.25000    1.000
    C13      C        0.07230    0.50000    0.00000    1.000
    H13      H        0.20980    0.50000    0.00000    1.000
    C14      C        0.57230    0.00000    0.00000    1.000
    H14      H        0.70980    0.00000    0.00000    1.000
    C15      C        0.92770    0.50000    0.50000    1.000
    H15      H        0.79020    0.50000    0.50000    1.000
    C16      C        0.42770    0.00000    0.50000    1.000
    H16      H        0.29020    0.00000    0.50000    1.000
