# CIF file generated by openbabel 3.1.0, see https://openbabel.org
data_I
_chemical_name_common 'KAVTUY_clean'
_cell_length_a 4.8218
_cell_length_b 18.295
_cell_length_c 19.8911
_cell_angle_alpha 90
_cell_angle_beta 90
_cell_angle_gamma 95.077
_space_group_name_H-M_alt 'P 1'
_space_group_name_Hall 'P 1'
loop_
    _symmetry_equiv_pos_as_xyz
    x,y,z
loop_
    _atom_site_label
    _atom_site_type_symbol
    _atom_site_fract_x
    _atom_site_fract_y
    _atom_site_fract_z
    _atom_site_occupancy
    Cu1      Cu       0.97798    0.79760    0.29644    1.000
    Cu2      Cu       0.42034    0.74874    0.15741    1.000
    Cu3      Cu       0.89270    0.70350    0.03000    1.000
    Cu4      Cu       0.52202    0.70240    0.79644    1.000
    Cu5      Cu       0.07966    0.75126    0.65741    1.000
    Cu6      Cu       0.60730    0.79650    0.53000    1.000
    Cu7      Cu       0.02202    0.20240    0.70356    1.000
    Cu8      Cu       0.57966    0.25126    0.84259    1.000
    Cu9      Cu       0.10730    0.29650    0.97000    1.000
    Cu10     Cu       0.47798    0.29760    0.20356    1.000
    Cu11     Cu       0.92034    0.24874    0.34259    1.000
    Cu12     Cu       0.39270    0.20350    0.47000    1.000
    P1       P        0.92290    0.65153    0.17460    1.000
    P2       P        0.07240    0.73160    0.44278    1.000
    P3       P        0.42390    0.34679    0.35278    1.000
    P4       P        0.57710    0.84847    0.67460    1.000
    P5       P        0.42760    0.76840    0.94278    1.000
    P6       P        0.07610    0.15321    0.85278    1.000
    P7       P        0.07710    0.34847    0.82540    1.000
    P8       P        0.92760    0.26840    0.55722    1.000
    P9       P        0.57610    0.65321    0.64722    1.000
    P10      P        0.42290    0.15153    0.32540    1.000
    P11      P        0.57240    0.23160    0.05722    1.000
    P12      P        0.92390    0.84679    0.14722    1.000
    H1       H        0.19630    0.62500    0.31790    1.000
    H2       H        0.70340    0.52970    0.45960    1.000
    H3       H        0.55850    0.48100    0.26710    1.000
    H4       H        0.86530    0.52600    0.18190    1.000
    H5       H        0.16930    0.55430    0.20260    1.000
    H6       H        0.32130    0.63000    0.44560    1.000
    H7       H        0.06450    0.61860    0.49380    1.000
    H8       H        0.19700    0.44990    0.37210    1.000
    H9       H        0.36990    0.43160    0.43570    1.000
    H10      H        0.30370    0.87500    0.81790    1.000
    H11      H        0.79660    0.97030    0.95960    1.000
    H12      H        0.94150    0.01900    0.76710    1.000
    H13      H        0.63470    0.97400    0.68190    1.000
    H14      H        0.33070    0.94570    0.70260    1.000
    H15      H        0.17870    0.87000    0.94560    1.000
    H16      H        0.43550    0.88140    0.99380    1.000
    H17      H        0.30300    0.05010    0.87210    1.000
    H18      H        0.13010    0.06840    0.93570    1.000
    H19      H        0.80370    0.37500    0.68210    1.000
    H20      H        0.29660    0.47030    0.54040    1.000
    H21      H        0.44150    0.51900    0.73290    1.000
    H22      H        0.13470    0.47400    0.81810    1.000
    H23      H        0.83070    0.44570    0.79740    1.000
    H24      H        0.67870    0.37000    0.55440    1.000
    H25      H        0.93550    0.38140    0.50620    1.000
    H26      H        0.80300    0.55010    0.62790    1.000
    H27      H        0.63010    0.56840    0.56430    1.000
    H28      H        0.69630    0.12500    0.18210    1.000
    H29      H        0.20340    0.02970    0.04040    1.000
    H30      H        0.05850    0.98100    0.23290    1.000
    H31      H        0.36530    0.02600    0.31810    1.000
    H32      H        0.66930    0.05430    0.29740    1.000
    H33      H        0.82130    0.13000    0.05440    1.000
    H34      H        0.56450    0.11860    0.00620    1.000
    H35      H        0.69700    0.94990    0.12790    1.000
    H36      H        0.86990    0.93160    0.06430    1.000
    C1       C        0.89660    0.55380    0.28120    1.000
    C2       C        0.04320    0.59330    0.33020    1.000
    C3       C        0.97010    0.58750    0.39740    1.000
    C4       C        0.75070    0.53600    0.41450    1.000
    C5       C        0.60170    0.49420    0.36710    1.000
    C6       C        0.66730    0.50560    0.30010    1.000
    C7       C        0.97490    0.56300    0.20790    1.000
    C8       C        0.12380    0.63560    0.44950    1.000
    C9       C        0.37550    0.43520    0.38700    1.000
    C10      C        0.60340    0.94620    0.78120    1.000
    C11      C        0.45680    0.90670    0.83020    1.000
    C12      C        0.52990    0.91250    0.89740    1.000
    C13      C        0.74930    0.96400    0.91450    1.000
    C14      C        0.89830    0.00580    0.86710    1.000
    C15      C        0.83270    0.99440    0.80010    1.000
    C16      C        0.52510    0.93700    0.70790    1.000
    C17      C        0.37620    0.86440    0.94950    1.000
    C18      C        0.12450    0.06480    0.88700    1.000
    C19      C        0.10340    0.44620    0.71880    1.000
    C20      C        0.95680    0.40670    0.66980    1.000
    C21      C        0.02990    0.41250    0.60260    1.000
    C22      C        0.24930    0.46400    0.58550    1.000
    C23      C        0.39830    0.50580    0.63290    1.000
    C24      C        0.33270    0.49440    0.69990    1.000
    C25      C        0.02510    0.43700    0.79210    1.000
    C26      C        0.87620    0.36440    0.55050    1.000
    C27      C        0.62450    0.56480    0.61300    1.000
    C28      C        0.39660    0.05380    0.21880    1.000
    C29      C        0.54320    0.09330    0.16980    1.000
    C30      C        0.47010    0.08750    0.10260    1.000
    C31      C        0.25070    0.03600    0.08550    1.000
    C32      C        0.10170    0.99420    0.13290    1.000
    C33      C        0.16730    0.00560    0.19990    1.000
    C34      C        0.47490    0.06300    0.29210    1.000
    C35      C        0.62380    0.13560    0.05050    1.000
    C36      C        0.87550    0.93520    0.11300    1.000
    O1       O        0.10990    0.70920    0.21328    1.000
    O2       O        0.61610    0.66330    0.18326    1.000
    O3       O        0.01270    0.65240    0.10130    1.000
    O4       O        0.16440    0.75700    0.37253    1.000
    O5       O        0.76620    0.74330    0.45412    1.000
    O6       O        0.24680    0.77240    0.49710    1.000
    O7       O        0.31250    0.34366    0.28094    1.000
    O8       O        0.23930    0.28933    0.39503    1.000
    O9       O        0.73090    0.33485    0.35978    1.000
    O10      O        0.39010    0.79080    0.71328    1.000
    O11      O        0.88390    0.83670    0.68326    1.000
    O12      O        0.48730    0.84760    0.60130    1.000
    O13      O        0.33560    0.74300    0.87253    1.000
    O14      O        0.73380    0.75670    0.95412    1.000
    O15      O        0.25320    0.72760    0.99710    1.000
    O16      O        0.18750    0.15634    0.78094    1.000
    O17      O        0.26070    0.21067    0.89503    1.000
    O18      O        0.76910    0.16515    0.85978    1.000
    O19      O        0.89010    0.29080    0.78672    1.000
    O20      O        0.38390    0.33670    0.81674    1.000
    O21      O        0.98730    0.34760    0.89870    1.000
    O22      O        0.83560    0.24300    0.62747    1.000
    O23      O        0.23380    0.25670    0.54588    1.000
    O24      O        0.75320    0.22760    0.50290    1.000
    O25      O        0.68750    0.65634    0.71906    1.000
    O26      O        0.76070    0.71067    0.60497    1.000
    O27      O        0.26910    0.66515    0.64022    1.000
    O28      O        0.60990    0.20920    0.28672    1.000
    O29      O        0.11610    0.16330    0.31674    1.000
    O30      O        0.51270    0.15240    0.39870    1.000
    O31      O        0.66440    0.25700    0.12747    1.000
    O32      O        0.26620    0.24330    0.04588    1.000
    O33      O        0.74680    0.27240    0.00290    1.000
    O34      O        0.81250    0.84366    0.21906    1.000
    O35      O        0.73930    0.78933    0.10497    1.000
    O36      O        0.23090    0.83485    0.14022    1.000
