# CIF file generated by openbabel 3.1.0, see https://openbabel.org
data_I
_chemical_name_common 'CUYYAX_clean'
_cell_length_a 9.0752
_cell_length_b 9.0752
_cell_length_c 27.014
_cell_angle_alpha 90
_cell_angle_beta 90
_cell_angle_gamma 90
_space_group_name_H-M_alt 'P 1'
_space_group_name_Hall 'P 1'
loop_
    _symmetry_equiv_pos_as_xyz
    x,y,z
loop_
    _atom_site_label
    _atom_site_type_symbol
    _atom_site_fract_x
    _atom_site_fract_y
    _atom_site_fract_z
    _atom_site_occupancy
    Cd1      Cd       0.18155    0.62330    0.37496    1.000
    Cd2      Cd       0.81845    0.37670    0.87496    1.000
    Cd3      Cd       0.37670    0.18155    0.62496    1.000
    Cd4      Cd       0.62330    0.81845    0.12496    1.000
    H1       H        0.41500    0.18620    0.24350    1.000
    H2       H        0.70720    0.47870    0.29660    1.000
    H3       H        0.66010    0.08260    0.36210    1.000
    H4       H        0.36450    0.96780    0.37480    1.000
    H5       H        0.34610    0.67700    0.26910    1.000
    H6       H        0.49260    0.88070    0.23840    1.000
    H7       H        0.69240    0.58560    0.22020    1.000
    H8       H        0.32660    0.59430    0.14500    1.000
    H9       H        0.31080    0.38520    0.20300    1.000
    H10      H        0.83480    0.53960    0.36530    1.000
    H11      H        0.09950    0.25460    0.42840    1.000
    H12      H        0.90030    0.11770    0.38910    1.000
    H13      H        0.58500    0.81380    0.74350    1.000
    H14      H        0.29280    0.52130    0.79660    1.000
    H15      H        0.33990    0.91740    0.86210    1.000
    H16      H        0.63550    0.03220    0.87480    1.000
    H17      H        0.65390    0.32300    0.76910    1.000
    H18      H        0.50740    0.11930    0.73840    1.000
    H19      H        0.30760    0.41440    0.72020    1.000
    H20      H        0.67340    0.40570    0.64500    1.000
    H21      H        0.68920    0.61480    0.70300    1.000
    H22      H        0.16520    0.46040    0.86530    1.000
    H23      H        0.90050    0.74540    0.92840    1.000
    H24      H        0.09970    0.88230    0.88910    1.000
    H25      H        0.81380    0.41500    0.49350    1.000
    H26      H        0.52130    0.70720    0.54660    1.000
    H27      H        0.91740    0.66010    0.61210    1.000
    H28      H        0.03220    0.36450    0.62480    1.000
    H29      H        0.32300    0.34610    0.51910    1.000
    H30      H        0.11930    0.49260    0.48840    1.000
    H31      H        0.41440    0.69240    0.47020    1.000
    H32      H        0.40570    0.32660    0.39500    1.000
    H33      H        0.61480    0.31080    0.45300    1.000
    H34      H        0.46040    0.83480    0.61530    1.000
    H35      H        0.74540    0.09950    0.67840    1.000
    H36      H        0.88230    0.90030    0.63910    1.000
    H37      H        0.18620    0.58500    0.99350    1.000
    H38      H        0.47870    0.29280    0.04660    1.000
    H39      H        0.08260    0.33990    0.11210    1.000
    H40      H        0.96780    0.63550    0.12480    1.000
    H41      H        0.67700    0.65390    0.01910    1.000
    H42      H        0.88070    0.50740    0.98840    1.000
    H43      H        0.58560    0.30760    0.97020    1.000
    H44      H        0.59430    0.67340    0.89500    1.000
    H45      H        0.38520    0.68920    0.95300    1.000
    H46      H        0.53960    0.16520    0.11530    1.000
    H47      H        0.25460    0.90050    0.17840    1.000
    H48      H        0.11770    0.09970    0.13910    1.000
    C1       C        0.52630    0.11580    0.30340    1.000
    C2       C        0.48710    0.21170    0.26640    1.000
    C3       C        0.55640    0.34610    0.26380    1.000
    C4       C        0.66380    0.38590    0.29787    1.000
    C5       C        0.70550    0.28420    0.33409    1.000
    C6       C        0.63490    0.14940    0.33740    1.000
    C7       C        0.37770    0.92010    0.34470    1.000
    C8       C        0.36840    0.76190    0.28680    1.000
    C9       C        0.44900    0.87380    0.26950    1.000
    C10      C        0.59930    0.56160    0.20830    1.000
    C11      C        0.39930    0.56590    0.16720    1.000
    C12      C        0.38950    0.45010    0.19960    1.000
    C13      C        0.87700    0.45200    0.37620    1.000
    C14      C        0.02120    0.29550    0.41090    1.000
    C15      C        0.91210    0.21950    0.38880    1.000
    C16      C        0.47370    0.88420    0.80340    1.000
    C17      C        0.51290    0.78830    0.76640    1.000
    C18      C        0.44360    0.65390    0.76380    1.000
    C19      C        0.33620    0.61410    0.79787    1.000
    C20      C        0.29450    0.71580    0.83409    1.000
    C21      C        0.36510    0.85060    0.83740    1.000
    C22      C        0.62230    0.07990    0.84470    1.000
    C23      C        0.63160    0.23810    0.78680    1.000
    C24      C        0.55100    0.12620    0.76950    1.000
    C25      C        0.40070    0.43840    0.70830    1.000
    C26      C        0.60070    0.43410    0.66720    1.000
    C27      C        0.61050    0.54990    0.69960    1.000
    C28      C        0.12300    0.54800    0.87620    1.000
    C29      C        0.97880    0.70450    0.91090    1.000
    C30      C        0.08790    0.78050    0.88880    1.000
    C31      C        0.88420    0.52630    0.55340    1.000
    C32      C        0.78830    0.48710    0.51640    1.000
    C33      C        0.65390    0.55640    0.51380    1.000
    C34      C        0.61410    0.66380    0.54787    1.000
    C35      C        0.71580    0.70550    0.58409    1.000
    C36      C        0.85060    0.63490    0.58740    1.000
    C37      C        0.07990    0.37770    0.59470    1.000
    C38      C        0.23810    0.36840    0.53680    1.000
    C39      C        0.12620    0.44900    0.51950    1.000
    C40      C        0.43840    0.59930    0.45830    1.000
    C41      C        0.43410    0.39930    0.41720    1.000
    C42      C        0.54990    0.38950    0.44960    1.000
    C43      C        0.54800    0.87700    0.62620    1.000
    C44      C        0.70450    0.02120    0.66090    1.000
    C45      C        0.78050    0.91210    0.63880    1.000
    C46      C        0.11580    0.47370    0.05340    1.000
    C47      C        0.21170    0.51290    0.01640    1.000
    C48      C        0.34610    0.44360    0.01380    1.000
    C49      C        0.38590    0.33620    0.04787    1.000
    C50      C        0.28420    0.29450    0.08409    1.000
    C51      C        0.14940    0.36510    0.08740    1.000
    C52      C        0.92010    0.62230    0.09470    1.000
    C53      C        0.76190    0.63160    0.03680    1.000
    C54      C        0.87380    0.55100    0.01950    1.000
    C55      C        0.56160    0.40070    0.95830    1.000
    C56      C        0.56590    0.60070    0.91720    1.000
    C57      C        0.45010    0.61050    0.94960    1.000
    C58      C        0.45200    0.12300    0.12620    1.000
    C59      C        0.29550    0.97880    0.16090    1.000
    C60      C        0.21950    0.08790    0.13880    1.000
    N1       N        0.32350    0.78950    0.33397    1.000
    N2       N        0.45450    0.97590    0.30647    1.000
    N3       N        0.53270    0.63290    0.17289    1.000
    N4       N        0.51710    0.44870    0.22569    1.000
    N5       N        0.99730    0.44650    0.40325    1.000
    N6       N        0.82140    0.31930    0.36595    1.000
    N7       N        0.67650    0.21050    0.83397    1.000
    N8       N        0.54550    0.02410    0.80647    1.000
    N9       N        0.46730    0.36710    0.67289    1.000
    N10      N        0.48290    0.55130    0.72569    1.000
    N11      N        0.00270    0.55350    0.90325    1.000
    N12      N        0.17860    0.68070    0.86595    1.000
    N13      N        0.21050    0.32350    0.58397    1.000
    N14      N        0.02410    0.45450    0.55647    1.000
    N15      N        0.36710    0.53270    0.42289    1.000
    N16      N        0.55130    0.51710    0.47569    1.000
    N17      N        0.55350    0.99730    0.65325    1.000
    N18      N        0.68070    0.82140    0.61595    1.000
    N19      N        0.78950    0.67650    0.08397    1.000
    N20      N        0.97590    0.54550    0.05647    1.000
    N21      N        0.63290    0.46730    0.92289    1.000
    N22      N        0.44870    0.48290    0.97569    1.000
    N23      N        0.44650    0.00270    0.15325    1.000
    N24      N        0.31930    0.17860    0.11595    1.000
