# CIF file generated by openbabel 3.1.0, see https://openbabel.org
data_I
_chemical_name_common 'image0'
_cell_length_a 21.617
_cell_length_b 11.127
_cell_length_c 16.294
_cell_angle_alpha 90
_cell_angle_beta 111.61
_cell_angle_gamma 90
_space_group_name_H-M_alt 'P 1'
_space_group_name_Hall 'P 1'
loop_
    _symmetry_equiv_pos_as_xyz
    x,y,z
loop_
    _atom_site_label
    _atom_site_type_symbol
    _atom_site_fract_x
    _atom_site_fract_y
    _atom_site_fract_z
    _atom_site_occupancy
    Cu1      Cu       0.97536    0.00637    0.67789    1.000
    Cu2      Cu       0.52029    0.00792    0.69666    1.000
    C1       C        0.82370    0.33470    0.74370    1.000
    C2       C        0.82050    0.20760    0.73750    1.000
    C3       C        0.76210    0.14910    0.72180    1.000
    C4       C        0.70510    0.21480    0.71070    1.000
    C5       C        0.70700    0.34060    0.71310    1.000
    C6       C        0.76640    0.39990    0.73210    1.000
    C7       C        0.88670    0.39410    0.76260    1.000
    N1       N        0.93770    0.43590    0.78070    1.000
    C8       C        0.87950    0.14150    0.74140    1.000
    N2       N        0.92470    0.08930    0.74010    1.000
    C9       C        0.64310    0.15190    0.69440    1.000
    N3       N        0.59410    0.10360    0.68280    1.000
    C10      C        0.64600    0.40650    0.69980    1.000
    N4       N        0.59690    0.45510    0.68590    1.000
    C11      C        0.79180    0.79800    0.50980    1.000
    C12      C        0.79150    0.67310    0.50590    1.000
    C13      C        0.73400    0.61270    0.45850    1.000
    C14      C        0.67620    0.67610    0.41640    1.000
    C15      C        0.67570    0.80180    0.42250    1.000
    C16      C        0.73380    0.86290    0.46920    1.000
    N5       N        0.90200    0.90850    0.59420    1.000
    C17      C        0.85380    0.86080    0.55760    1.000
    C18      C        0.85180    0.60670    0.55110    1.000
    N6       N        0.90110    0.55690    0.58540    1.000
    C19      C        0.61670    0.61470    0.36000    1.000
    N7       N        0.57100    0.56750    0.31180    1.000
    C20      C        0.61460    0.86850    0.37940    1.000
    N8       N        0.56550    0.91670    0.34750    1.000
    Cu3      Cu       0.02464    0.50637    0.82211    1.000
    Cu4      Cu       0.47971    0.50792    0.80334    1.000
    C21      C        0.17630    0.83470    0.75630    1.000
    C22      C        0.17950    0.70760    0.76250    1.000
    C23      C        0.23790    0.64910    0.77820    1.000
    C24      C        0.29490    0.71480    0.78930    1.000
    C25      C        0.29300    0.84060    0.78690    1.000
    C26      C        0.23360    0.89990    0.76790    1.000
    C27      C        0.11330    0.89410    0.73740    1.000
    N9       N        0.06230    0.93590    0.71930    1.000
    C28      C        0.12050    0.64150    0.75860    1.000
    N10      N        0.07530    0.58930    0.75990    1.000
    C29      C        0.35690    0.65190    0.80560    1.000
    N11      N        0.40590    0.60360    0.81720    1.000
    C30      C        0.35400    0.90650    0.80020    1.000
    N12      N        0.40310    0.95510    0.81410    1.000
    C31      C        0.20820    0.29800    0.99020    1.000
    C32      C        0.20850    0.17310    0.99410    1.000
    C33      C        0.26600    0.11270    0.04150    1.000
    C34      C        0.32380    0.17610    0.08360    1.000
    C35      C        0.32430    0.30180    0.07750    1.000
    C36      C        0.26620    0.36290    0.03080    1.000
    N13      N        0.09800    0.40850    0.90580    1.000
    C37      C        0.14620    0.36080    0.94240    1.000
    C38      C        0.14820    0.10670    0.94890    1.000
    N14      N        0.09890    0.05690    0.91460    1.000
    C39      C        0.38330    0.11470    0.14000    1.000
    N15      N        0.42900    0.06750    0.18820    1.000
    C40      C        0.38540    0.36850    0.12060    1.000
    N16      N        0.43450    0.41670    0.15250    1.000
    Cu5      Cu       0.02464    0.99363    0.32211    1.000
    Cu6      Cu       0.47971    0.99208    0.30334    1.000
    C41      C        0.17630    0.66530    0.25630    1.000
    C42      C        0.17950    0.79240    0.26250    1.000
    C43      C        0.23790    0.85090    0.27820    1.000
    C44      C        0.29490    0.78520    0.28930    1.000
    C45      C        0.29300    0.65940    0.28690    1.000
    C46      C        0.23360    0.60010    0.26790    1.000
    C47      C        0.11330    0.60590    0.23740    1.000
    N17      N        0.06230    0.56410    0.21930    1.000
    C48      C        0.12050    0.85850    0.25860    1.000
    N18      N        0.07530    0.91070    0.25990    1.000
    C49      C        0.35690    0.84810    0.30560    1.000
    N19      N        0.40590    0.89640    0.31720    1.000
    C50      C        0.35400    0.59350    0.30020    1.000
    N20      N        0.40310    0.54490    0.31410    1.000
    C51      C        0.20820    0.20200    0.49020    1.000
    C52      C        0.20850    0.32690    0.49410    1.000
    C53      C        0.26600    0.38730    0.54150    1.000
    C54      C        0.32380    0.32390    0.58360    1.000
    C55      C        0.32430    0.19820    0.57750    1.000
    C56      C        0.26620    0.13710    0.53080    1.000
    N21      N        0.09800    0.09150    0.40580    1.000
    C57      C        0.14620    0.13920    0.44240    1.000
    C58      C        0.14820    0.39330    0.44890    1.000
    N22      N        0.09890    0.44310    0.41460    1.000
    C59      C        0.38330    0.38530    0.64000    1.000
    N23      N        0.42900    0.43250    0.68820    1.000
    C60      C        0.38540    0.13150    0.62060    1.000
    N24      N        0.43450    0.08330    0.65250    1.000
    Cu7      Cu       0.97536    0.49363    0.17789    1.000
    Cu8      Cu       0.52029    0.49208    0.19666    1.000
    C61      C        0.82370    0.16530    0.24370    1.000
    C62      C        0.82050    0.29240    0.23750    1.000
    C63      C        0.76210    0.35090    0.22180    1.000
    C64      C        0.70510    0.28520    0.21070    1.000
    C65      C        0.70700    0.15940    0.21310    1.000
    C66      C        0.76640    0.10010    0.23210    1.000
    C67      C        0.88670    0.10590    0.26260    1.000
    N25      N        0.93770    0.06410    0.28070    1.000
    C68      C        0.87950    0.35850    0.24140    1.000
    N26      N        0.92470    0.41070    0.24010    1.000
    C69      C        0.64310    0.34810    0.19440    1.000
    N27      N        0.59410    0.39640    0.18280    1.000
    C70      C        0.64600    0.09350    0.19980    1.000
    N28      N        0.59690    0.04490    0.18590    1.000
    C71      C        0.79180    0.70200    0.00980    1.000
    C72      C        0.79150    0.82690    0.00590    1.000
    C73      C        0.73400    0.88730    0.95850    1.000
    C74      C        0.67620    0.82390    0.91640    1.000
    C75      C        0.67570    0.69820    0.92250    1.000
    C76      C        0.73380    0.63710    0.96920    1.000
    N29      N        0.90200    0.59150    0.09420    1.000
    C77      C        0.85380    0.63920    0.05760    1.000
    C78      C        0.85180    0.89330    0.05110    1.000
    N30      N        0.90110    0.94310    0.08540    1.000
    C79      C        0.61670    0.88530    0.86000    1.000
    N31      N        0.57100    0.93250    0.81180    1.000
    C80      C        0.61460    0.63150    0.87940    1.000
    N32      N        0.56550    0.58330    0.84750    1.000
