# CIF file generated by openbabel 3.1.0, see https://openbabel.org
data_I
_chemical_name_common 'image0'
_cell_length_a 18.2959
_cell_length_b 18.2959
_cell_length_c 17.1099
_cell_angle_alpha 90
_cell_angle_beta 90
_cell_angle_gamma 90
_space_group_name_H-M_alt 'P 1'
_space_group_name_Hall 'P 1'
loop_
    _symmetry_equiv_pos_as_xyz
    x,y,z
loop_
    _atom_site_label
    _atom_site_type_symbol
    _atom_site_fract_x
    _atom_site_fract_y
    _atom_site_fract_z
    _atom_site_occupancy
    C1       C        0.72781    0.99943    0.49086    1.000
    H1       H        0.75610    0.99860    0.44430    1.000
    C2       C        0.70800    0.06580    0.52423    1.000
    C3       C        0.66660    0.06697    0.59236    1.000
    H2       H        0.65310    0.11230    0.61520    1.000
    C4       C        0.64506    0.00177    0.62711    1.000
    C5       C        0.66490    0.93540    0.59374    1.000
    H3       H        0.65010    0.89080    0.61750    1.000
    C6       C        0.70625    0.93423    0.52561    1.000
    C7       C        0.45930    0.94580    0.99310    1.000
    C8       C        0.46590    0.89390    0.05310    1.000
    C9       C        0.49759    0.85607    0.18847    1.000
    C10      C        0.56432    0.83641    0.22111    1.000
    H4       H        0.60860    0.85190    0.19730    1.000
    C11      C        0.56625    0.79412    0.28858    1.000
    C12      C        0.50144    0.77150    0.32340    1.000
    H5       H        0.50280    0.74260    0.36950    1.000
    C13      C        0.43471    0.79117    0.29075    1.000
    C14      C        0.43278    0.83345    0.22329    1.000
    H6       H        0.38720    0.84690    0.20100    1.000
    C15      C        0.53590    0.93410    0.94614    1.000
    C16      C        0.53160    0.98270    0.00854    1.000
    C17      C        0.51370    0.95725    0.08277    1.000
    C18      C        0.50022    0.88321    0.09461    1.000
    C19      C        0.50450    0.83460    0.03221    1.000
    C20      C        0.52240    0.86000    0.95797    1.000
    C21      C        0.49290    0.91210    0.12730    1.000
    C22      C        0.50580    0.01140    0.14460    1.000
    C23      C        0.61890    0.99960    0.71810    1.000
    C24      C        0.54460    0.98990    0.73190    1.000
    C25      C        0.52050    0.96830    0.80530    1.000
    C26      C        0.57050    0.95640    0.86510    1.000
    C27      C        0.64480    0.96600    0.85130    1.000
    C28      C        0.66900    0.98760    0.77790    1.000
    C29      C        0.57840    0.01040    0.68440    1.000
    C30      C        0.60740    0.03140    0.75780    1.000
    C31      C        0.55260    0.03790    0.81710    1.000
    Cu1      Cu       0.71259    0.71276    0.46057    1.000
    Cu2      Cu       0.78760    0.78744    0.35466    1.000
    C32      C        0.36600    0.77590    0.33080    1.000
    C33      C        0.63110    0.77690    0.32810    1.000
    O1       O        0.76280    0.86900    0.42420    1.000
    C34      C        0.72400    0.86150    0.48390    1.000
    O2       O        0.69860    0.80640    0.51230    1.000
    O3       O        0.86780    0.76330    0.42080    1.000
    C35      C        0.72590    0.13690    0.48220    1.000
    O4       O        0.80710    0.69960    0.51160    1.000
    O5       O        0.69400    0.79960    0.29750    1.000
    O6       O        0.30720    0.79870    0.29870    1.000
    O7       O        0.37010    0.73790    0.39160    1.000
    O8       O        0.63060    0.73840    0.39220    1.000
    O9       O        0.48790    0.81520    0.90100    1.000
    O10      O        0.68960    0.94580    0.91480    1.000
    C36      C        0.76730    0.94700    0.90640    1.000
    C37      C        0.49580    0.73930    0.90440    1.000
    C38      C        0.42600    0.71100    0.85900    1.000
    C39      C        0.81430    0.89300    0.87400    1.000
    C40      C        0.27219    0.00057    0.49086    1.000
    H7       H        0.24390    0.00140    0.44430    1.000
    C41      C        0.29200    0.93420    0.52423    1.000
    C42      C        0.33340    0.93303    0.59236    1.000
    H8       H        0.34690    0.88770    0.61520    1.000
    C43      C        0.35494    0.99823    0.62711    1.000
    C44      C        0.33510    0.06460    0.59374    1.000
    H9       H        0.34990    0.10920    0.61750    1.000
    C45      C        0.29375    0.06577    0.52561    1.000
    C46      C        0.54070    0.05420    0.99310    1.000
    C47      C        0.53410    0.10610    0.05310    1.000
    C48      C        0.50241    0.14393    0.18847    1.000
    C49      C        0.43568    0.16359    0.22111    1.000
    H10      H        0.39140    0.14810    0.19730    1.000
    C50      C        0.43375    0.20588    0.28858    1.000
    C51      C        0.49856    0.22850    0.32340    1.000
    H11      H        0.49720    0.25740    0.36950    1.000
    C52      C        0.56529    0.20883    0.29075    1.000
    C53      C        0.56722    0.16655    0.22329    1.000
    H12      H        0.61280    0.15310    0.20100    1.000
    C54      C        0.46410    0.06590    0.94614    1.000
    C55      C        0.46840    0.01730    0.00854    1.000
    C56      C        0.48630    0.04275    0.08277    1.000
    C57      C        0.49978    0.11679    0.09461    1.000
    C58      C        0.49550    0.16540    0.03221    1.000
    C59      C        0.47760    0.14000    0.95797    1.000
    C60      C        0.50710    0.08790    0.12730    1.000
    C61      C        0.49420    0.98860    0.14460    1.000
    C62      C        0.38110    0.00040    0.71810    1.000
    C63      C        0.45540    0.01010    0.73190    1.000
    C64      C        0.47950    0.03170    0.80530    1.000
    C65      C        0.42950    0.04360    0.86510    1.000
    C66      C        0.35520    0.03400    0.85130    1.000
    C67      C        0.33100    0.01240    0.77790    1.000
    C68      C        0.42160    0.98960    0.68440    1.000
    C69      C        0.39260    0.96860    0.75780    1.000
    C70      C        0.44740    0.96210    0.81710    1.000
    Cu3      Cu       0.28741    0.28724    0.46057    1.000
    Cu4      Cu       0.21240    0.21256    0.35466    1.000
    C71      C        0.63400    0.22410    0.33080    1.000
    C72      C        0.36890    0.22310    0.32810    1.000
    O11      O        0.23720    0.13100    0.42420    1.000
    C73      C        0.27600    0.13850    0.48390    1.000
    O12      O        0.30140    0.19360    0.51230    1.000
    O13      O        0.13220    0.23670    0.42080    1.000
    C74      C        0.27410    0.86310    0.48220    1.000
    O14      O        0.19290    0.30040    0.51160    1.000
    O15      O        0.30600    0.20040    0.29750    1.000
    O16      O        0.69280    0.20130    0.29870    1.000
    O17      O        0.62990    0.26210    0.39160    1.000
    O18      O        0.36940    0.26160    0.39220    1.000
    O19      O        0.51210    0.18480    0.90100    1.000
    O20      O        0.31040    0.05420    0.91480    1.000
    C75      C        0.23270    0.05300    0.90640    1.000
    C76      C        0.50420    0.26070    0.90440    1.000
    C77      C        0.57400    0.28900    0.85900    1.000
    C78      C        0.18570    0.10700    0.87400    1.000
    C79      C        0.00057    0.72781    0.49086    1.000
    H13      H        0.00140    0.75610    0.44430    1.000
    C80      C        0.93420    0.70800    0.52423    1.000
    C81      C        0.93303    0.66660    0.59236    1.000
    H14      H        0.88770    0.65310    0.61520    1.000
    C82      C        0.99823    0.64506    0.62711    1.000
    C83      C        0.06460    0.66490    0.59374    1.000
    H15      H        0.10920    0.65010    0.61750    1.000
    C84      C        0.06577    0.70625    0.52561    1.000
    C85      C        0.05420    0.45930    0.99310    1.000
    C86      C        0.10610    0.46590    0.05310    1.000
    C87      C        0.14393    0.49759    0.18847    1.000
    C88      C        0.16359    0.56432    0.22111    1.000
    H16      H        0.14810    0.60860    0.19730    1.000
    C89      C        0.20588    0.56625    0.28858    1.000
    C90      C        0.22850    0.50144    0.32340    1.000
    H17      H        0.25740    0.50280    0.36950    1.000
    C91      C        0.20883    0.43471    0.29075    1.000
    C92      C        0.16655    0.43278    0.22329    1.000
    H18      H        0.15310    0.38720    0.20100    1.000
    C93      C        0.06590    0.53590    0.94614    1.000
    C94      C        0.01730    0.53160    0.00854    1.000
    C95      C        0.04275    0.51370    0.08277    1.000
    C96      C        0.11679    0.50022    0.09461    1.000
    C97      C        0.16540    0.50450    0.03221    1.000
    C98      C        0.14000    0.52240    0.95797    1.000
    C99      C        0.08790    0.49290    0.12730    1.000
    C100     C        0.98860    0.50580    0.14460    1.000
    C101     C        0.00040    0.61890    0.71810    1.000
    C102     C        0.01010    0.54460    0.73190    1.000
    C103     C        0.03170    0.52050    0.80530    1.000
    C104     C        0.04360    0.57050    0.86510    1.000
    C105     C        0.03400    0.64480    0.85130    1.000
    C106     C        0.01240    0.66900    0.77790    1.000
    C107     C        0.98960    0.57840    0.68440    1.000
    C108     C        0.96860    0.60740    0.75780    1.000
    C109     C        0.96210    0.55260    0.81710    1.000
    Cu5      Cu       0.28724    0.71259    0.46057    1.000
    Cu6      Cu       0.21256    0.78760    0.35466    1.000
    C110     C        0.22410    0.36600    0.33080    1.000
    C111     C        0.22310    0.63110    0.32810    1.000
    O21      O        0.13100    0.76280    0.42420    1.000
    C112     C        0.13850    0.72400    0.48390    1.000
    O22      O        0.19360    0.69860    0.51230    1.000
    O23      O        0.23670    0.86780    0.42080    1.000
    C113     C        0.86310    0.72590    0.48220    1.000
    O24      O        0.30040    0.80710    0.51160    1.000
    O25      O        0.20040    0.69400    0.29750    1.000
    O26      O        0.20130    0.30720    0.29870    1.000
    O27      O        0.26210    0.37010    0.39160    1.000
    O28      O        0.26160    0.63060    0.39220    1.000
    O29      O        0.18480    0.48790    0.90100    1.000
    O30      O        0.05420    0.68960    0.91480    1.000
    C114     C        0.05300    0.76730    0.90640    1.000
    C115     C        0.26070    0.49580    0.90440    1.000
    C116     C        0.28900    0.42600    0.85900    1.000
    C117     C        0.10700    0.81430    0.87400    1.000
    C118     C        0.99943    0.27219    0.49086    1.000
    H19      H        0.99860    0.24390    0.44430    1.000
    C119     C        0.06580    0.29200    0.52423    1.000
    C120     C        0.06697    0.33340    0.59236    1.000
    H20      H        0.11230    0.34690    0.61520    1.000
    C121     C        0.00177    0.35494    0.62711    1.000
    C122     C        0.93540    0.33510    0.59374    1.000
    H21      H        0.89080    0.34990    0.61750    1.000
    C123     C        0.93423    0.29375    0.52561    1.000
    C124     C        0.94580    0.54070    0.99310    1.000
    C125     C        0.89390    0.53410    0.05310    1.000
    C126     C        0.85607    0.50241    0.18847    1.000
    C127     C        0.83641    0.43568    0.22111    1.000
    H22      H        0.85190    0.39140    0.19730    1.000
    C128     C        0.79412    0.43375    0.28858    1.000
    C129     C        0.77150    0.49856    0.32340    1.000
    H23      H        0.74260    0.49720    0.36950    1.000
    C130     C        0.79117    0.56529    0.29075    1.000
    C131     C        0.83345    0.56722    0.22329    1.000
    H24      H        0.84690    0.61280    0.20100    1.000
    C132     C        0.93410    0.46410    0.94614    1.000
    C133     C        0.98270    0.46840    0.00854    1.000
    C134     C        0.95725    0.48630    0.08277    1.000
    C135     C        0.88321    0.49978    0.09461    1.000
    C136     C        0.83460    0.49550    0.03221    1.000
    C137     C        0.86000    0.47760    0.95797    1.000
    C138     C        0.91210    0.50710    0.12730    1.000
    C139     C        0.01140    0.49420    0.14460    1.000
    C140     C        0.99960    0.38110    0.71810    1.000
    C141     C        0.98990    0.45540    0.73190    1.000
    C142     C        0.96830    0.47950    0.80530    1.000
    C143     C        0.95640    0.42950    0.86510    1.000
    C144     C        0.96600    0.35520    0.85130    1.000
    C145     C        0.98760    0.33100    0.77790    1.000
    C146     C        0.01040    0.42160    0.68440    1.000
    C147     C        0.03140    0.39260    0.75780    1.000
    C148     C        0.03790    0.44740    0.81710    1.000
    Cu7      Cu       0.71276    0.28741    0.46057    1.000
    Cu8      Cu       0.78744    0.21240    0.35466    1.000
    C149     C        0.77590    0.63400    0.33080    1.000
    C150     C        0.77690    0.36890    0.32810    1.000
    O31      O        0.86900    0.23720    0.42420    1.000
    C151     C        0.86150    0.27600    0.48390    1.000
    O32      O        0.80640    0.30140    0.51230    1.000
    O33      O        0.76330    0.13220    0.42080    1.000
    C152     C        0.13690    0.27410    0.48220    1.000
    O34      O        0.69960    0.19290    0.51160    1.000
    O35      O        0.79960    0.30600    0.29750    1.000
    O36      O        0.79870    0.69280    0.29870    1.000
    O37      O        0.73790    0.62990    0.39160    1.000
    O38      O        0.73840    0.36940    0.39220    1.000
    O39      O        0.81520    0.51210    0.90100    1.000
    O40      O        0.94580    0.31040    0.91480    1.000
    C153     C        0.94700    0.23270    0.90640    1.000
    C154     C        0.73930    0.50420    0.90440    1.000
    C155     C        0.71100    0.57400    0.85900    1.000
    C156     C        0.89300    0.18570    0.87400    1.000
    C157     C        0.50000    0.00000    0.67020    1.000
    C158     C        0.00000    0.50000    0.67020    1.000
