# CIF file generated by openbabel 3.1.0, see https://openbabel.org
data_I
_chemical_name_common 'XAPYAO_clean'
_cell_length_a 15.0958
_cell_length_b 17.0071
_cell_length_c 17.4842
_cell_angle_alpha 90
_cell_angle_beta 90
_cell_angle_gamma 90
_space_group_name_H-M_alt 'P 1'
_space_group_name_Hall 'P 1'
loop_
    _symmetry_equiv_pos_as_xyz
    x,y,z
loop_
    _atom_site_label
    _atom_site_type_symbol
    _atom_site_fract_x
    _atom_site_fract_y
    _atom_site_fract_z
    _atom_site_occupancy
    Ni1      Ni       0.51660    0.93150    0.83710    1.000
    Ni2      Ni       0.99190    0.43380    0.93540    1.000
    Ni3      Ni       0.98340    0.93150    0.33710    1.000
    Ni4      Ni       0.50810    0.43380    0.43540    1.000
    H1       H        0.17930    0.09010    0.64810    1.000
    H2       H        0.70300    0.25730    0.69270    1.000
    H3       H        0.79830    0.75280    0.08620    1.000
    H4       H        0.31150    0.60980    0.13420    1.000
    H5       H        0.97240    0.06090    0.47310    1.000
    H6       H        0.05040    0.09740    0.57880    1.000
    H7       H        0.24520    0.94870    0.51360    1.000
    H8       H        0.16070    0.91750    0.40890    1.000
    H9       H        0.40080    0.07200    0.80660    1.000
    H10      H        0.29130    0.11850    0.72900    1.000
    H11      H        0.29310    0.91030    0.61710    1.000
    H12      H        0.40600    0.87120    0.69730    1.000
    H13      H        0.54490    0.03660    0.69920    1.000
    H14      H        0.60890    0.15240    0.66260    1.000
    H15      H        0.72180    0.16590    0.87250    1.000
    H16      H        0.65440    0.04870    0.90120    1.000
    H17      H        0.80470    0.37380    0.94570    1.000
    H18      H        0.70260    0.29820    0.88140    1.000
    H19      H        0.85780    0.31260    0.69410    1.000
    H20      H        0.95490    0.38850    0.76350    1.000
    H21      H        0.70810    0.87950    0.83410    1.000
    H22      H        0.80660    0.80080    0.89760    1.000
    H23      H        0.64640    0.81460    0.08290    1.000
    H24      H        0.55230    0.89190    0.01220    1.000
    H25      H        0.85180    0.55220    0.87060    1.000
    H26      H        0.78380    0.66850    0.90220    1.000
    H27      H        0.88530    0.64320    0.11500    1.000
    H28      H        0.95080    0.53000    0.07570    1.000
    H29      H        0.09480    0.58360    0.96860    1.000
    H30      H        0.19840    0.63440    0.05080    1.000
    H31      H        0.21610    0.42010    0.15060    1.000
    H32      H        0.10980    0.37710    0.06590    1.000
    H33      H        0.52530    0.56220    0.30180    1.000
    H34      H        0.44750    0.60580    0.19770    1.000
    H35      H        0.24810    0.46050    0.25960    1.000
    H36      H        0.33150    0.42410    0.36290    1.000
    H37      H        0.32070    0.09010    0.14810    1.000
    H38      H        0.79700    0.25730    0.19270    1.000
    H39      H        0.70170    0.75280    0.58620    1.000
    H40      H        0.18850    0.60980    0.63420    1.000
    H41      H        0.52760    0.06090    0.97310    1.000
    H42      H        0.44960    0.09740    0.07880    1.000
    H43      H        0.25480    0.94870    0.01360    1.000
    H44      H        0.33930    0.91750    0.90890    1.000
    H45      H        0.09920    0.07200    0.30660    1.000
    H46      H        0.20870    0.11850    0.22900    1.000
    H47      H        0.20690    0.91030    0.11710    1.000
    H48      H        0.09400    0.87120    0.19730    1.000
    H49      H        0.95510    0.03660    0.19920    1.000
    H50      H        0.89110    0.15240    0.16260    1.000
    H51      H        0.77820    0.16590    0.37250    1.000
    H52      H        0.84560    0.04870    0.40120    1.000
    H53      H        0.69530    0.37380    0.44570    1.000
    H54      H        0.79740    0.29820    0.38140    1.000
    H55      H        0.64220    0.31260    0.19410    1.000
    H56      H        0.54510    0.38850    0.26350    1.000
    H57      H        0.79190    0.87950    0.33410    1.000
    H58      H        0.69340    0.80080    0.39760    1.000
    H59      H        0.85360    0.81460    0.58290    1.000
    H60      H        0.94770    0.89190    0.51220    1.000
    H61      H        0.64820    0.55220    0.37060    1.000
    H62      H        0.71620    0.66850    0.40220    1.000
    H63      H        0.61470    0.64320    0.61500    1.000
    H64      H        0.54920    0.53000    0.57570    1.000
    H65      H        0.40520    0.58360    0.46860    1.000
    H66      H        0.30160    0.63440    0.55080    1.000
    H67      H        0.28390    0.42010    0.65060    1.000
    H68      H        0.39020    0.37710    0.56590    1.000
    H69      H        0.97470    0.56220    0.80180    1.000
    H70      H        0.05250    0.60580    0.69770    1.000
    H71      H        0.25190    0.46050    0.75960    1.000
    H72      H        0.16850    0.42410    0.86290    1.000
    C1       C        0.02720    0.03750    0.48170    1.000
    C2       C        0.07370    0.05990    0.54580    1.000
    C3       C        0.15740    0.02550    0.56150    1.000
    C4       C        0.18980    0.97170    0.50730    1.000
    C5       C        0.13780    0.95310    0.44410    1.000
    C6       C        0.37880    0.03920    0.76860    1.000
    C7       C        0.31210    0.06740    0.72240    1.000
    C8       C        0.27510    0.01890    0.66500    1.000
    C9       C        0.31310    0.94390    0.65540    1.000
    C10      C        0.38140    0.92080    0.70450    1.000
    C11      C        0.58010    0.06310    0.73440    1.000
    C12      C        0.61860    0.13300    0.71160    1.000
    C13      C        0.67330    0.17490    0.76370    1.000
    C14      C        0.68620    0.14130    0.83640    1.000
    C15      C        0.64440    0.07040    0.85310    1.000
    C16      C        0.81600    0.36060    0.89510    1.000
    C17      C        0.75420    0.31430    0.85690    1.000
    C18      C        0.77060    0.29240    0.78120    1.000
    C19      C        0.84660    0.32310    0.74540    1.000
    C20      C        0.90460    0.36910    0.78780    1.000
    C21      C        0.69460    0.86440    0.88380    1.000
    C22      C        0.75460    0.81690    0.92150    1.000
    C23      C        0.73520    0.79320    0.99760    1.000
    C24      C        0.65910    0.82500    0.03190    1.000
    C25      C        0.60290    0.87200    0.98870    1.000
    C26      C        0.86000    0.57170    0.91970    1.000
    C27      C        0.81800    0.64210    0.93830    1.000
    C28      C        0.82830    0.67280    0.01280    1.000
    C29      C        0.87870    0.62700    0.06460    1.000
    C30      C        0.91790    0.55850    0.04030    1.000
    C31      C        0.11960    0.55070    0.00530    1.000
    C32      C        0.18280    0.58160    0.05410    1.000
    C33      C        0.22360    0.53240    0.10890    1.000
    C34      C        0.19340    0.45420    0.11380    1.000
    C35      C        0.12890    0.42900    0.06260    1.000
    C36      C        0.46940    0.54120    0.29280    1.000
    C37      C        0.42300    0.56780    0.22960    1.000
    C38      C        0.33790    0.53660    0.21380    1.000
    C39      C        0.30430    0.48180    0.26630    1.000
    C40      C        0.35570    0.45970    0.32840    1.000
    C41      C        0.47280    0.03750    0.98170    1.000
    C42      C        0.42630    0.05990    0.04580    1.000
    C43      C        0.34260    0.02550    0.06150    1.000
    C44      C        0.31020    0.97170    0.00730    1.000
    C45      C        0.36220    0.95310    0.94410    1.000
    C46      C        0.12120    0.03920    0.26860    1.000
    C47      C        0.18790    0.06740    0.22240    1.000
    C48      C        0.22490    0.01890    0.16500    1.000
    C49      C        0.18690    0.94390    0.15540    1.000
    C50      C        0.11860    0.92080    0.20450    1.000
    C51      C        0.91990    0.06310    0.23440    1.000
    C52      C        0.88140    0.13300    0.21160    1.000
    C53      C        0.82670    0.17490    0.26370    1.000
    C54      C        0.81380    0.14130    0.33640    1.000
    C55      C        0.85560    0.07040    0.35310    1.000
    C56      C        0.68400    0.36060    0.39510    1.000
    C57      C        0.74580    0.31430    0.35690    1.000
    C58      C        0.72940    0.29240    0.28120    1.000
    C59      C        0.65340    0.32310    0.24540    1.000
    C60      C        0.59540    0.36910    0.28780    1.000
    C61      C        0.80540    0.86440    0.38380    1.000
    C62      C        0.74540    0.81690    0.42150    1.000
    C63      C        0.76480    0.79320    0.49760    1.000
    C64      C        0.84090    0.82500    0.53190    1.000
    C65      C        0.89710    0.87200    0.48870    1.000
    C66      C        0.64000    0.57170    0.41970    1.000
    C67      C        0.68200    0.64210    0.43830    1.000
    C68      C        0.67170    0.67280    0.51280    1.000
    C69      C        0.62130    0.62700    0.56460    1.000
    C70      C        0.58210    0.55850    0.54030    1.000
    C71      C        0.38040    0.55070    0.50530    1.000
    C72      C        0.31720    0.58160    0.55410    1.000
    C73      C        0.27640    0.53240    0.60890    1.000
    C74      C        0.30660    0.45420    0.61380    1.000
    C75      C        0.37110    0.42900    0.56260    1.000
    C76      C        0.03060    0.54120    0.79280    1.000
    C77      C        0.07700    0.56780    0.72960    1.000
    C78      C        0.16210    0.53660    0.71380    1.000
    C79      C        0.19570    0.48180    0.76630    1.000
    C80      C        0.14430    0.45970    0.82840    1.000
    N1       N        0.05600    0.98340    0.42990    1.000
    N2       N        0.20150    0.04900    0.62690    1.000
    N3       N        0.41420    0.96590    0.76180    1.000
    N4       N        0.59030    0.03060    0.80500    1.000
    N5       N        0.71370    0.24320    0.73900    1.000
    N6       N        0.89210    0.38750    0.86260    1.000
    N7       N        0.61720    0.89070    0.91410    1.000
    N8       N        0.78890    0.74100    0.03910    1.000
    N9       N        0.91170    0.52970    0.96750    1.000
    N10      N        0.09210    0.47500    0.00820    1.000
    N11      N        0.29330    0.56490    0.15050    1.000
    N12      N        0.43840    0.48620    0.34230    1.000
    N13      N        0.44400    0.98340    0.92990    1.000
    N14      N        0.29850    0.04900    0.12690    1.000
    N15      N        0.08580    0.96590    0.26180    1.000
    N16      N        0.90970    0.03060    0.30500    1.000
    N17      N        0.78630    0.24320    0.23900    1.000
    N18      N        0.60790    0.38750    0.36260    1.000
    N19      N        0.88280    0.89070    0.41410    1.000
    N20      N        0.71110    0.74100    0.53910    1.000
    N21      N        0.58830    0.52970    0.46750    1.000
    N22      N        0.40790    0.47500    0.50820    1.000
    N23      N        0.20670    0.56490    0.65050    1.000
    N24      N        0.06160    0.48620    0.84230    1.000
    Ni5      Ni       0.48340    0.06850    0.33710    1.000
    Ni6      Ni       0.00810    0.56620    0.43540    1.000
    Ni7      Ni       0.01660    0.06850    0.83710    1.000
    Ni8      Ni       0.49190    0.56620    0.93540    1.000
    H73      H        0.82070    0.90990    0.14810    1.000
    H74      H        0.29700    0.74270    0.19270    1.000
    H75      H        0.20170    0.24720    0.58620    1.000
    H76      H        0.68850    0.39020    0.63420    1.000
    H77      H        0.02760    0.93910    0.97310    1.000
    H78      H        0.94960    0.90260    0.07880    1.000
    H79      H        0.75480    0.05130    0.01360    1.000
    H80      H        0.83930    0.08250    0.90890    1.000
    H81      H        0.59920    0.92800    0.30660    1.000
    H82      H        0.70870    0.88150    0.22900    1.000
    H83      H        0.70690    0.08970    0.11710    1.000
    H84      H        0.59400    0.12880    0.19730    1.000
    H85      H        0.45510    0.96340    0.19920    1.000
    H86      H        0.39110    0.84760    0.16260    1.000
    H87      H        0.27820    0.83410    0.37250    1.000
    H88      H        0.34560    0.95130    0.40120    1.000
    H89      H        0.19530    0.62620    0.44570    1.000
    H90      H        0.29740    0.70180    0.38140    1.000
    H91      H        0.14220    0.68740    0.19410    1.000
    H92      H        0.04510    0.61150    0.26350    1.000
    H93      H        0.29190    0.12050    0.33410    1.000
    H94      H        0.19340    0.19920    0.39760    1.000
    H95      H        0.35360    0.18540    0.58290    1.000
    H96      H        0.44770    0.10810    0.51220    1.000
    H97      H        0.14820    0.44780    0.37060    1.000
    H98      H        0.21620    0.33150    0.40220    1.000
    H99      H        0.11470    0.35680    0.61500    1.000
    H100     H        0.04920    0.47000    0.57570    1.000
    H101     H        0.90520    0.41640    0.46860    1.000
    H102     H        0.80160    0.36560    0.55080    1.000
    H103     H        0.78390    0.57990    0.65060    1.000
    H104     H        0.89020    0.62290    0.56590    1.000
    H105     H        0.47470    0.43780    0.80180    1.000
    H106     H        0.55250    0.39420    0.69770    1.000
    H107     H        0.75190    0.53950    0.75960    1.000
    H108     H        0.66850    0.57590    0.86290    1.000
    H109     H        0.67930    0.90990    0.64810    1.000
    H110     H        0.20300    0.74270    0.69270    1.000
    H111     H        0.29830    0.24720    0.08620    1.000
    H112     H        0.81150    0.39020    0.13420    1.000
    H113     H        0.47240    0.93910    0.47310    1.000
    H114     H        0.55040    0.90260    0.57880    1.000
    H115     H        0.74520    0.05130    0.51360    1.000
    H116     H        0.66070    0.08250    0.40890    1.000
    H117     H        0.90080    0.92800    0.80660    1.000
    H118     H        0.79130    0.88150    0.72900    1.000
    H119     H        0.79310    0.08970    0.61710    1.000
    H120     H        0.90600    0.12880    0.69730    1.000
    H121     H        0.04490    0.96340    0.69920    1.000
    H122     H        0.10890    0.84760    0.66260    1.000
    H123     H        0.22180    0.83410    0.87250    1.000
    H124     H        0.15440    0.95130    0.90120    1.000
    H125     H        0.30470    0.62620    0.94570    1.000
    H126     H        0.20260    0.70180    0.88140    1.000
    H127     H        0.35780    0.68740    0.69410    1.000
    H128     H        0.45490    0.61150    0.76350    1.000
    H129     H        0.20810    0.12050    0.83410    1.000
    H130     H        0.30660    0.19920    0.89760    1.000
    H131     H        0.14640    0.18540    0.08290    1.000
    H132     H        0.05230    0.10810    0.01220    1.000
    H133     H        0.35180    0.44780    0.87060    1.000
    H134     H        0.28380    0.33150    0.90220    1.000
    H135     H        0.38530    0.35680    0.11500    1.000
    H136     H        0.45080    0.47000    0.07570    1.000
    H137     H        0.59480    0.41640    0.96860    1.000
    H138     H        0.69840    0.36560    0.05080    1.000
    H139     H        0.71610    0.57990    0.15060    1.000
    H140     H        0.60980    0.62290    0.06590    1.000
    H141     H        0.02530    0.43780    0.30180    1.000
    H142     H        0.94750    0.39420    0.19770    1.000
    H143     H        0.74810    0.53950    0.25960    1.000
    H144     H        0.83150    0.57590    0.36290    1.000
    C81      C        0.97280    0.96250    0.98170    1.000
    C82      C        0.92630    0.94010    0.04580    1.000
    C83      C        0.84260    0.97450    0.06150    1.000
    C84      C        0.81020    0.02830    0.00730    1.000
    C85      C        0.86220    0.04690    0.94410    1.000
    C86      C        0.62120    0.96080    0.26860    1.000
    C87      C        0.68790    0.93260    0.22240    1.000
    C88      C        0.72490    0.98110    0.16500    1.000
    C89      C        0.68690    0.05610    0.15540    1.000
    C90      C        0.61860    0.07920    0.20450    1.000
    C91      C        0.41990    0.93690    0.23440    1.000
    C92      C        0.38140    0.86700    0.21160    1.000
    C93      C        0.32670    0.82510    0.26370    1.000
    C94      C        0.31380    0.85870    0.33640    1.000
    C95      C        0.35560    0.92960    0.35310    1.000
    C96      C        0.18400    0.63940    0.39510    1.000
    C97      C        0.24580    0.68570    0.35690    1.000
    C98      C        0.22940    0.70760    0.28120    1.000
    C99      C        0.15340    0.67690    0.24540    1.000
    C100     C        0.09540    0.63090    0.28780    1.000
    C101     C        0.30540    0.13560    0.38380    1.000
    C102     C        0.24540    0.18310    0.42150    1.000
    C103     C        0.26480    0.20680    0.49760    1.000
    C104     C        0.34090    0.17500    0.53190    1.000
    C105     C        0.39710    0.12800    0.48870    1.000
    C106     C        0.14000    0.42830    0.41970    1.000
    C107     C        0.18200    0.35790    0.43830    1.000
    C108     C        0.17170    0.32720    0.51280    1.000
    C109     C        0.12130    0.37300    0.56460    1.000
    C110     C        0.08210    0.44150    0.54030    1.000
    C111     C        0.88040    0.44930    0.50530    1.000
    C112     C        0.81720    0.41840    0.55410    1.000
    C113     C        0.77640    0.46760    0.60890    1.000
    C114     C        0.80660    0.54580    0.61380    1.000
    C115     C        0.87110    0.57100    0.56260    1.000
    C116     C        0.53060    0.45880    0.79280    1.000
    C117     C        0.57700    0.43220    0.72960    1.000
    C118     C        0.66210    0.46340    0.71380    1.000
    C119     C        0.69570    0.51820    0.76630    1.000
    C120     C        0.64430    0.54030    0.82840    1.000
    C121     C        0.52720    0.96250    0.48170    1.000
    C122     C        0.57370    0.94010    0.54580    1.000
    C123     C        0.65740    0.97450    0.56150    1.000
    C124     C        0.68980    0.02830    0.50730    1.000
    C125     C        0.63780    0.04690    0.44410    1.000
    C126     C        0.87880    0.96080    0.76860    1.000
    C127     C        0.81210    0.93260    0.72240    1.000
    C128     C        0.77510    0.98110    0.66500    1.000
    C129     C        0.81310    0.05610    0.65540    1.000
    C130     C        0.88140    0.07920    0.70450    1.000
    C131     C        0.08010    0.93690    0.73440    1.000
    C132     C        0.11860    0.86700    0.71160    1.000
    C133     C        0.17330    0.82510    0.76370    1.000
    C134     C        0.18620    0.85870    0.83640    1.000
    C135     C        0.14440    0.92960    0.85310    1.000
    C136     C        0.31600    0.63940    0.89510    1.000
    C137     C        0.25420    0.68570    0.85690    1.000
    C138     C        0.27060    0.70760    0.78120    1.000
    C139     C        0.34660    0.67690    0.74540    1.000
    C140     C        0.40460    0.63090    0.78780    1.000
    C141     C        0.19460    0.13560    0.88380    1.000
    C142     C        0.25460    0.18310    0.92150    1.000
    C143     C        0.23520    0.20680    0.99760    1.000
    C144     C        0.15910    0.17500    0.03190    1.000
    C145     C        0.10290    0.12800    0.98870    1.000
    C146     C        0.36000    0.42830    0.91970    1.000
    C147     C        0.31800    0.35790    0.93830    1.000
    C148     C        0.32830    0.32720    0.01280    1.000
    C149     C        0.37870    0.37300    0.06460    1.000
    C150     C        0.41790    0.44150    0.04030    1.000
    C151     C        0.61960    0.44930    0.00530    1.000
    C152     C        0.68280    0.41840    0.05410    1.000
    C153     C        0.72360    0.46760    0.10890    1.000
    C154     C        0.69340    0.54580    0.11380    1.000
    C155     C        0.62890    0.57100    0.06260    1.000
    C156     C        0.96940    0.45880    0.29280    1.000
    C157     C        0.92300    0.43220    0.22960    1.000
    C158     C        0.83790    0.46340    0.21380    1.000
    C159     C        0.80430    0.51820    0.26630    1.000
    C160     C        0.85570    0.54030    0.32840    1.000
    N25      N        0.94400    0.01660    0.92990    1.000
    N26      N        0.79850    0.95100    0.12690    1.000
    N27      N        0.58580    0.03410    0.26180    1.000
    N28      N        0.40970    0.96940    0.30500    1.000
    N29      N        0.28630    0.75680    0.23900    1.000
    N30      N        0.10790    0.61250    0.36260    1.000
    N31      N        0.38280    0.10930    0.41410    1.000
    N32      N        0.21110    0.25900    0.53910    1.000
    N33      N        0.08830    0.47030    0.46750    1.000
    N34      N        0.90790    0.52500    0.50820    1.000
    N35      N        0.70670    0.43510    0.65050    1.000
    N36      N        0.56160    0.51380    0.84230    1.000
    N37      N        0.55600    0.01660    0.42990    1.000
    N38      N        0.70150    0.95100    0.62690    1.000
    N39      N        0.91420    0.03410    0.76180    1.000
    N40      N        0.09030    0.96940    0.80500    1.000
    N41      N        0.21370    0.75680    0.73900    1.000
    N42      N        0.39210    0.61250    0.86260    1.000
    N43      N        0.11720    0.10930    0.91410    1.000
    N44      N        0.28890    0.25900    0.03910    1.000
    N45      N        0.41170    0.47030    0.96750    1.000
    N46      N        0.59210    0.52500    0.00820    1.000
    N47      N        0.79330    0.43510    0.15050    1.000
    N48      N        0.93840    0.51380    0.34230    1.000
