# CIF file generated by openbabel 3.1.0, see https://openbabel.org
data_I
_chemical_name_common 'UXABUR_clean'
_cell_length_a 6.726
_cell_length_b 11.298
_cell_length_c 19.8076
_cell_angle_alpha 106.57
_cell_angle_beta 91.1214
_cell_angle_gamma 90
_space_group_name_H-M_alt 'P 1'
_space_group_name_Hall 'P 1'
loop_
    _symmetry_equiv_pos_as_xyz
    x,y,z
loop_
    _atom_site_label
    _atom_site_type_symbol
    _atom_site_fract_x
    _atom_site_fract_y
    _atom_site_fract_z
    _atom_site_occupancy
    Y1       Y        0.81776    0.41895    0.25722    1.000
    Y2       Y        0.68224    0.16173    0.74278    1.000
    Y3       Y        0.18224    0.58105    0.74278    1.000
    Y4       Y        0.31776    0.83827    0.25722    1.000
    H1       H        0.81730    0.50980    0.53120    1.000
    H2       H        0.62110    0.72830    0.54480    1.000
    H3       H        0.64070    0.51850    0.42420    1.000
    H4       H        0.48890    0.74700    0.43020    1.000
    H5       H        0.47430    0.33410    0.03580    1.000
    H6       H        0.59350    0.57380    0.06460    1.000
    H7       H        0.96900    0.25990    0.16980    1.000
    H8       H        0.89400    0.15000    0.18400    1.000
    H9       H        0.68270    0.97860    0.46880    1.000
    H10      H        0.87890    0.18350    0.45520    1.000
    H11      H        0.85930    0.09430    0.57580    1.000
    H12      H        0.01110    0.31680    0.56980    1.000
    H13      H        0.02570    0.29830    0.96420    1.000
    H14      H        0.90650    0.50920    0.93540    1.000
    H15      H        0.53100    0.09010    0.83020    1.000
    H16      H        0.60600    0.96600    0.81600    1.000
    H17      H        0.18270    0.49020    0.46880    1.000
    H18      H        0.37890    0.27170    0.45520    1.000
    H19      H        0.35930    0.48150    0.57580    1.000
    H20      H        0.51110    0.25300    0.56980    1.000
    H21      H        0.52570    0.66590    0.96420    1.000
    H22      H        0.40650    0.42620    0.93540    1.000
    H23      H        0.03100    0.74010    0.83020    1.000
    H24      H        0.10600    0.85000    0.81600    1.000
    H25      H        0.31730    0.02140    0.53120    1.000
    H26      H        0.12110    0.81650    0.54480    1.000
    H27      H        0.14070    0.90570    0.42420    1.000
    H28      H        0.98890    0.68320    0.43020    1.000
    H29      H        0.97430    0.70170    0.03580    1.000
    H30      H        0.09350    0.49080    0.06460    1.000
    H31      H        0.46900    0.90990    0.16980    1.000
    H32      H        0.39400    0.03400    0.18400    1.000
    C1       C        0.83690    0.63840    0.63040    1.000
    C2       C        0.77580    0.58880    0.55540    1.000
    C3       C        0.66560    0.65010    0.52060    1.000
    C4       C        0.61090    0.60060    0.44640    1.000
    C5       C        0.52130    0.66510    0.40840    1.000
    C6       C        0.47110    0.61250    0.33340    1.000
    C7       C        0.63010    0.41080    0.12960    1.000
    C8       C        0.53720    0.40660    0.06160    1.000
    C9       C        0.53930    0.50020    0.03620    1.000
    C10      C        0.66310    0.00800    0.36960    1.000
    C11      C        0.72420    0.03340    0.44460    1.000
    C12      C        0.83440    0.12950    0.47940    1.000
    C13      C        0.88910    0.15420    0.55360    1.000
    C14      C        0.97870    0.25670    0.59160    1.000
    C15      C        0.02890    0.27910    0.66660    1.000
    C16      C        0.86990    0.28120    0.87040    1.000
    C17      C        0.96280    0.34500    0.93840    1.000
    C18      C        0.96070    0.46400    0.96380    1.000
    C19      C        0.16310    0.36160    0.36960    1.000
    C20      C        0.22420    0.41120    0.44460    1.000
    C21      C        0.33440    0.34990    0.47940    1.000
    C22      C        0.38910    0.39940    0.55360    1.000
    C23      C        0.47870    0.33490    0.59160    1.000
    C24      C        0.52890    0.38750    0.66660    1.000
    C25      C        0.36990    0.58920    0.87040    1.000
    C26      C        0.46280    0.59340    0.93840    1.000
    C27      C        0.46070    0.49980    0.96380    1.000
    C28      C        0.33690    0.99200    0.63040    1.000
    C29      C        0.27580    0.96660    0.55540    1.000
    C30      C        0.16560    0.87050    0.52060    1.000
    C31      C        0.11090    0.84580    0.44640    1.000
    C32      C        0.02130    0.74330    0.40840    1.000
    C33      C        0.97110    0.72090    0.33340    1.000
    C34      C        0.13010    0.71880    0.12960    1.000
    C35      C        0.03720    0.65500    0.06160    1.000
    C36      C        0.03930    0.53600    0.03620    1.000
    O1       O        0.75210    0.72937    0.66894    1.000
    O2       O        0.98010    0.58242    0.64984    1.000
    O3       O        0.51780    0.50157    0.30234    1.000
    O4       O        0.87750    0.62429    0.30318    1.000
    O5       O        0.72640    0.50424    0.16368    1.000
    O6       O        0.61860    0.31898    0.15336    1.000
    O7       O        0.96980    0.22520    0.21120    1.000
    O8       O        0.74790    0.06043    0.33106    1.000
    O9       O        0.51990    0.93258    0.35016    1.000
    O10      O        0.98220    0.19923    0.69766    1.000
    O11      O        0.62250    0.32111    0.69682    1.000
    O12      O        0.77360    0.34056    0.83632    1.000
    O13      O        0.88140    0.16562    0.84664    1.000
    O14      O        0.53020    0.01400    0.78880    1.000
    O15      O        0.24790    0.27063    0.33106    1.000
    O16      O        0.01990    0.41758    0.35016    1.000
    O17      O        0.48220    0.49843    0.69766    1.000
    O18      O        0.12250    0.37571    0.69682    1.000
    O19      O        0.27360    0.49576    0.83632    1.000
    O20      O        0.38140    0.68102    0.84664    1.000
    O21      O        0.03020    0.77480    0.78880    1.000
    O22      O        0.25210    0.93957    0.66894    1.000
    O23      O        0.48010    0.06742    0.64984    1.000
    O24      O        0.01780    0.80077    0.30234    1.000
    O25      O        0.37750    0.67889    0.30318    1.000
    O26      O        0.22640    0.65944    0.16368    1.000
    O27      O        0.11860    0.83438    0.15336    1.000
    O28      O        0.46980    0.98600    0.21120    1.000
