# CIF file generated by openbabel 3.1.0, see https://openbabel.org
data_I
_chemical_name_common 'image0'
_cell_length_a 34.3624
_cell_length_b 18.6807
_cell_length_c 25.8757
_cell_angle_alpha 90
_cell_angle_beta 90
_cell_angle_gamma 90
_space_group_name_H-M_alt 'P 1'
_space_group_name_Hall 'P 1'
loop_
    _symmetry_equiv_pos_as_xyz
    x,y,z
loop_
    _atom_site_label
    _atom_site_type_symbol
    _atom_site_fract_x
    _atom_site_fract_y
    _atom_site_fract_z
    _atom_site_occupancy
    Cu1      Cu       0.22642    0.03468    0.66759    1.000
    Cu2      Cu       0.26451    0.96321    0.74258    1.000
    C1       C        0.11070    0.83870    0.89160    1.000
    O1       O        0.18276    0.01170    0.71270    1.000
    C2       C        0.11140    0.89050    0.84550    1.000
    O2       O        0.21390    0.95460    0.77580    1.000
    O3       O        0.14405    0.82500    0.90640    1.000
    C3       C        0.14640    0.96070    0.78000    1.000
    O4       O        0.07866    0.82260    0.90700    1.000
    C4       C        0.18490    0.98050    0.75580    1.000
    C5       C        0.14690    0.91200    0.82240    1.000
    H1       H        0.17090    0.89410    0.83520    1.000
    C6       C        0.11100    0.98600    0.76060    1.000
    H2       H        0.11080    0.01850    0.73240    1.000
    O5       O        0.04300    0.97870    0.75720    1.000
    C7       C        0.00930    0.98710    0.78770    1.000
    H3       H        0.01680    0.99470    0.82420    1.000
    H4       H        0.99460    0.02970    0.77590    1.000
    C8       C        0.98440    0.92340    0.78380    1.000
    H5       H        0.98270    0.90790    0.74730    1.000
    H6       H        0.99580    0.88380    0.80430    1.000
    C9       C        0.94420    0.94070    0.80400    1.000
    H7       H        0.92960    0.89610    0.81080    1.000
    H8       H        0.92970    0.96940    0.77830    1.000
    O6       O        0.94910    0.98180    0.85230    1.000
    C10      C        0.91320    0.01310    0.87440    1.000
    C11      C        0.91640    0.06570    0.91090    1.000
    H9       H        0.94120    0.07410    0.92590    1.000
    C12      C        0.85000    0.09280    0.90370    1.000
    H10      H        0.82790    0.12030    0.91340    1.000
    C13      C        0.87730    0.99880    0.85150    1.000
    H11      H        0.87460    0.96210    0.82630    1.000
    C14      C        0.07630    0.96240    0.78470    1.000
    C15      C        0.07570    0.91500    0.82720    1.000
    H12      H        0.05190    0.90050    0.84260    1.000
    O7       O        0.92058    0.17750    0.98630    1.000
    O8       O        0.85515    0.17770    0.98800    1.000
    O9       O        0.77720    0.04330    0.86440    1.000
    O10      O        0.80848    0.98270    0.80310    1.000
    C16      C        0.88520    0.10780    0.92740    1.000
    C17      C        0.84540    0.03970    0.86660    1.000
    C18      C        0.80590    0.02440    0.84160    1.000
    C19      C        0.88620    0.16490    0.97000    1.000
    C20      C        0.23140    0.88640    0.65740    1.000
    O11      O        0.22090    0.94150    0.63550    1.000
    C21      C        0.22370    0.81680    0.63220    1.000
    O12      O        0.25250    0.87790    0.69940    1.000
    C22      C        0.20410    0.81580    0.58570    1.000
    H13      H        0.19590    0.85910    0.56990    1.000
    O13      O        0.22970    0.93950    0.27200    1.000
    O14      O        0.26360    0.87860    0.21000    1.000
    C23      C        0.21340    0.81180    0.31820    1.000
    H14      H        0.20690    0.85620    0.33380    1.000
    C24      C        0.23430    0.81453    0.27280    1.000
    C25      C        0.24403    0.88520    0.24760    1.000
    C26      C        0.99039    0.77040    0.92250    1.000
    N1       N        0.00936    0.72960    0.96080    1.000
    C27      C        0.98931    0.72960    0.00670    1.000
    C28      C        0.94896    0.72960    0.00190    1.000
    C29      C        0.92751    0.77040    0.96330    1.000
    C30      C        0.95103    0.77040    0.91540    1.000
    O15      O        0.17360    0.77370    0.51740    1.000
    O16      O        0.17980    0.72360    0.38710    1.000
    C31      C        0.15020    0.71780    0.49090    1.000
    C32      C        0.15690    0.78410    0.40530    1.000
    H15      H        0.00510    0.77040    0.89140    1.000
    H16      H        0.00200    0.72960    0.03930    1.000
    H17      H        0.93540    0.72960    0.03400    1.000
    H18      H        0.89990    0.77040    0.96440    1.000
    H19      H        0.93950    0.77040    0.88200    1.000
    H20      H        0.11620    0.71220    0.42800    1.000
    H21      H        0.11310    0.78670    0.45760    1.000
    H22      H        0.13010    0.69880    0.51460    1.000
    H23      H        0.16720    0.67770    0.48020    1.000
    H24      H        0.17370    0.82160    0.42050    1.000
    H25      H        0.14120    0.80510    0.37700    1.000
    C33      C        0.94520    0.50600    0.78150    1.000
    C34      C        0.91310    0.43260    0.84560    1.000
    C35      C        0.91850    0.39660    0.89170    1.000
    C36      C        0.85050    0.42470    0.91240    1.000
    C37      C        0.87750    0.46350    0.83350    1.000
    C38      C        0.98670    0.52000    0.76390    1.000
    C39      C        0.14320    0.59240    0.81660    1.000
    C40      C        0.11500    0.49280    0.76930    1.000
    C41      C        0.08110    0.50410    0.79710    1.000
    C42      C        0.08130    0.56100    0.83360    1.000
    C43      C        0.01270    0.46960    0.79630    1.000
    H26      H        0.93300    0.55050    0.79440    1.000
    H27      H        0.92940    0.48710    0.75260    1.000
    H28      H        0.94290    0.37540    0.90000    1.000
    H29      H        0.82900    0.42200    0.93540    1.000
    H30      H        0.87490    0.48780    0.80150    1.000
    H31      H        0.99380    0.57090    0.77030    1.000
    H32      H        0.98950    0.51010    0.72660    1.000
    H33      H        0.16580    0.62040    0.82240    1.000
    H34      H        0.11710    0.45570    0.74440    1.000
    H35      H        0.05780    0.56720    0.85250    1.000
    H36      H        0.01430    0.48570    0.83270    1.000
    H37      H        0.00270    0.41990    0.79540    1.000
    O17      O        0.05020    0.47430    0.77140    1.000
    O18      O        0.94820    0.45330    0.82270    1.000
    Cu3      Cu       0.27358    0.96532    0.16759    1.000
    Cu4      Cu       0.23549    0.03679    0.24258    1.000
    C44      C        0.38930    0.16130    0.39160    1.000
    O19      O        0.31724    0.98830    0.21270    1.000
    C45      C        0.38860    0.10950    0.34550    1.000
    O20      O        0.28610    0.04540    0.27580    1.000
    O21      O        0.35595    0.17500    0.40640    1.000
    C46      C        0.35360    0.03930    0.28000    1.000
    O22      O        0.42134    0.17740    0.40700    1.000
    C47      C        0.31510    0.01950    0.25580    1.000
    C48      C        0.35310    0.08800    0.32240    1.000
    H38      H        0.32910    0.10590    0.33520    1.000
    C49      C        0.38900    0.01400    0.26060    1.000
    H39      H        0.38920    0.98150    0.23240    1.000
    O23      O        0.45700    0.02130    0.25720    1.000
    C50      C        0.49070    0.01290    0.28770    1.000
    H40      H        0.48320    0.00530    0.32420    1.000
    H41      H        0.50540    0.97030    0.27590    1.000
    C51      C        0.51560    0.07660    0.28380    1.000
    H42      H        0.51730    0.09210    0.24730    1.000
    H43      H        0.50420    0.11620    0.30430    1.000
    C52      C        0.55580    0.05930    0.30400    1.000
    H44      H        0.57040    0.10390    0.31080    1.000
    H45      H        0.57030    0.03060    0.27830    1.000
    O24      O        0.55090    0.01820    0.35230    1.000
    C53      C        0.58680    0.98690    0.37440    1.000
    C54      C        0.58360    0.93430    0.41090    1.000
    H46      H        0.55880    0.92590    0.42590    1.000
    C55      C        0.65000    0.90720    0.40370    1.000
    H47      H        0.67210    0.87970    0.41340    1.000
    C56      C        0.62270    0.00120    0.35150    1.000
    H48      H        0.62540    0.03790    0.32630    1.000
    C57      C        0.42370    0.03760    0.28470    1.000
    C58      C        0.42430    0.08500    0.32720    1.000
    H49      H        0.44810    0.09950    0.34260    1.000
    O25      O        0.57942    0.82250    0.48630    1.000
    O26      O        0.64485    0.82230    0.48800    1.000
    O27      O        0.72280    0.95670    0.36440    1.000
    O28      O        0.69152    0.01730    0.30310    1.000
    C59      C        0.61480    0.89220    0.42740    1.000
    C60      C        0.65460    0.96030    0.36660    1.000
    C61      C        0.69410    0.97560    0.34160    1.000
    C62      C        0.61380    0.83510    0.47000    1.000
    C63      C        0.26860    0.11360    0.15740    1.000
    O29      O        0.27910    0.05850    0.13550    1.000
    C64      C        0.27630    0.18320    0.13220    1.000
    O30      O        0.24750    0.12210    0.19940    1.000
    C65      C        0.29590    0.18420    0.08570    1.000
    H50      H        0.30410    0.14090    0.06990    1.000
    O31      O        0.27030    0.06050    0.77200    1.000
    O32      O        0.23640    0.12140    0.71000    1.000
    C66      C        0.28660    0.18820    0.81820    1.000
    H51      H        0.29310    0.14380    0.83380    1.000
    C67      C        0.26570    0.18547    0.77280    1.000
    C68      C        0.25597    0.11480    0.74760    1.000
    C69      C        0.50961    0.22960    0.42250    1.000
    N2       N        0.49064    0.27040    0.46080    1.000
    C70      C        0.51069    0.27040    0.50670    1.000
    C71      C        0.55104    0.27040    0.50190    1.000
    C72      C        0.57249    0.22960    0.46330    1.000
    C73      C        0.54897    0.22960    0.41540    1.000
    O33      O        0.32640    0.22630    0.01740    1.000
    O34      O        0.32020    0.27640    0.88710    1.000
    C74      C        0.34980    0.28220    0.99090    1.000
    C75      C        0.34310    0.21590    0.90530    1.000
    H52      H        0.49490    0.22960    0.39140    1.000
    H53      H        0.49800    0.27040    0.53930    1.000
    H54      H        0.56460    0.27040    0.53400    1.000
    H55      H        0.60010    0.22960    0.46440    1.000
    H56      H        0.56050    0.22960    0.38200    1.000
    H57      H        0.38380    0.28780    0.92800    1.000
    H58      H        0.38690    0.21330    0.95760    1.000
    H59      H        0.36990    0.30120    0.01460    1.000
    H60      H        0.33280    0.32230    0.98020    1.000
    H61      H        0.32630    0.17840    0.92050    1.000
    H62      H        0.35880    0.19490    0.87700    1.000
    C76      C        0.55480    0.49400    0.28150    1.000
    C77      C        0.58690    0.56740    0.34560    1.000
    C78      C        0.58150    0.60340    0.39170    1.000
    C79      C        0.64950    0.57530    0.41240    1.000
    C80      C        0.62250    0.53650    0.33350    1.000
    C81      C        0.51330    0.48000    0.26390    1.000
    C82      C        0.35680    0.40760    0.31660    1.000
    C83      C        0.38500    0.50720    0.26930    1.000
    C84      C        0.41890    0.49590    0.29710    1.000
    C85      C        0.41870    0.43900    0.33360    1.000
    C86      C        0.48730    0.53040    0.29630    1.000
    H63      H        0.56700    0.44950    0.29440    1.000
    H64      H        0.57060    0.51290    0.25260    1.000
    H65      H        0.55710    0.62460    0.40000    1.000
    H66      H        0.67100    0.57800    0.43540    1.000
    H67      H        0.62510    0.51220    0.30150    1.000
    H68      H        0.50620    0.42910    0.27030    1.000
    H69      H        0.51050    0.48990    0.22660    1.000
    H70      H        0.33420    0.37960    0.32240    1.000
    H71      H        0.38290    0.54430    0.24440    1.000
    H72      H        0.44220    0.43280    0.35250    1.000
    H73      H        0.48570    0.51430    0.33270    1.000
    H74      H        0.49730    0.58010    0.29540    1.000
    O35      O        0.44980    0.52570    0.27140    1.000
    O36      O        0.55180    0.54670    0.32270    1.000
    Cu5      Cu       0.77358    0.53468    0.33241    1.000
    Cu6      Cu       0.73549    0.46321    0.25742    1.000
    C87      C        0.88930    0.33870    0.10840    1.000
    O37      O        0.81724    0.51170    0.28730    1.000
    C88      C        0.88860    0.39050    0.15450    1.000
    O38      O        0.78610    0.45460    0.22420    1.000
    O39      O        0.85595    0.32500    0.09360    1.000
    C89      C        0.85360    0.46070    0.22000    1.000
    O40      O        0.92134    0.32260    0.09300    1.000
    C90      C        0.81510    0.48050    0.24420    1.000
    C91      C        0.85310    0.41200    0.17760    1.000
    H75      H        0.82910    0.39410    0.16480    1.000
    C92      C        0.88900    0.48600    0.23940    1.000
    H76      H        0.88920    0.51850    0.26760    1.000
    O41      O        0.95700    0.47870    0.24280    1.000
    C93      C        0.99070    0.48710    0.21230    1.000
    H77      H        0.98320    0.49470    0.17580    1.000
    H78      H        0.00540    0.52970    0.22410    1.000
    C94      C        0.01560    0.42340    0.21620    1.000
    H79      H        0.01730    0.40790    0.25270    1.000
    H80      H        0.00420    0.38380    0.19570    1.000
    C95      C        0.05580    0.44070    0.19600    1.000
    H81      H        0.07040    0.39610    0.18920    1.000
    H82      H        0.07030    0.46940    0.22170    1.000
    O42      O        0.05090    0.48180    0.14770    1.000
    C96      C        0.08680    0.51310    0.12560    1.000
    C97      C        0.08360    0.56570    0.08910    1.000
    H83      H        0.05880    0.57410    0.07410    1.000
    C98      C        0.15000    0.59280    0.09630    1.000
    H84      H        0.17210    0.62030    0.08660    1.000
    C99      C        0.12270    0.49880    0.14850    1.000
    H85      H        0.12540    0.46210    0.17370    1.000
    C100     C        0.92370    0.46240    0.21530    1.000
    C101     C        0.92430    0.41500    0.17280    1.000
    H86      H        0.94810    0.40050    0.15740    1.000
    O43      O        0.07942    0.67750    0.01370    1.000
    O44      O        0.14485    0.67770    0.01200    1.000
    O45      O        0.22280    0.54330    0.13560    1.000
    O46      O        0.19152    0.48270    0.19690    1.000
    C102     C        0.11480    0.60780    0.07260    1.000
    C103     C        0.15460    0.53970    0.13340    1.000
    C104     C        0.19410    0.52440    0.15840    1.000
    C105     C        0.11380    0.66490    0.03000    1.000
    C106     C        0.76860    0.38640    0.34260    1.000
    O47      O        0.77910    0.44150    0.36450    1.000
    C107     C        0.77630    0.31680    0.36780    1.000
    O48      O        0.74750    0.37790    0.30060    1.000
    C108     C        0.79590    0.31580    0.41430    1.000
    H87      H        0.80410    0.35910    0.43010    1.000
    O49      O        0.77030    0.43950    0.72800    1.000
    O50      O        0.73640    0.37860    0.79000    1.000
    C109     C        0.78660    0.31180    0.68180    1.000
    H88      H        0.79310    0.35620    0.66620    1.000
    C110     C        0.76570    0.31453    0.72720    1.000
    C111     C        0.75597    0.38520    0.75240    1.000
    C112     C        0.00961    0.27040    0.07750    1.000
    N3       N        0.99064    0.22960    0.03920    1.000
    C113     C        0.01069    0.22960    0.99330    1.000
    C114     C        0.05104    0.22960    0.99810    1.000
    C115     C        0.07249    0.27040    0.03670    1.000
    C116     C        0.04897    0.27040    0.08460    1.000
    O51      O        0.82640    0.27370    0.48260    1.000
    O52      O        0.82020    0.22360    0.61290    1.000
    C117     C        0.84980    0.21780    0.50910    1.000
    C118     C        0.84310    0.28410    0.59470    1.000
    H89      H        0.99490    0.27040    0.10860    1.000
    H90      H        0.99800    0.22960    0.96070    1.000
    H91      H        0.06460    0.22960    0.96600    1.000
    H92      H        0.10010    0.27040    0.03560    1.000
    H93      H        0.06050    0.27040    0.11800    1.000
    H94      H        0.88380    0.21220    0.57200    1.000
    H95      H        0.88690    0.28670    0.54240    1.000
    H96      H        0.86990    0.19880    0.48540    1.000
    H97      H        0.83280    0.17770    0.51980    1.000
    H98      H        0.82630    0.32160    0.57950    1.000
    H99      H        0.85880    0.30510    0.62300    1.000
    C119     C        0.05480    0.00600    0.21850    1.000
    C120     C        0.08690    0.93260    0.15440    1.000
    C121     C        0.08150    0.89660    0.10830    1.000
    C122     C        0.14950    0.92470    0.08760    1.000
    C123     C        0.12250    0.96350    0.16650    1.000
    C124     C        0.01330    0.02000    0.23610    1.000
    C125     C        0.85680    0.09240    0.18340    1.000
    C126     C        0.88500    0.99280    0.23070    1.000
    C127     C        0.91890    0.00410    0.20290    1.000
    C128     C        0.91870    0.06100    0.16640    1.000
    C129     C        0.98730    0.96960    0.20370    1.000
    H100     H        0.06700    0.05050    0.20560    1.000
    H101     H        0.07060    0.98710    0.24740    1.000
    H102     H        0.05710    0.87540    0.10000    1.000
    H103     H        0.17100    0.92200    0.06460    1.000
    H104     H        0.12510    0.98780    0.19850    1.000
    H105     H        0.00620    0.07090    0.22970    1.000
    H106     H        0.01050    0.01010    0.27340    1.000
    H107     H        0.83420    0.12040    0.17760    1.000
    H108     H        0.88290    0.95570    0.25560    1.000
    H109     H        0.94220    0.06720    0.14750    1.000
    H110     H        0.98570    0.98570    0.16730    1.000
    H111     H        0.99730    0.91990    0.20460    1.000
    O53      O        0.94980    0.97430    0.22860    1.000
    O54      O        0.05180    0.95330    0.17730    1.000
    Cu7      Cu       0.72642    0.46532    0.83241    1.000
    Cu8      Cu       0.76451    0.53679    0.75742    1.000
    C130     C        0.61070    0.66130    0.60840    1.000
    O55      O        0.68276    0.48830    0.78730    1.000
    C131     C        0.61140    0.60950    0.65450    1.000
    O56      O        0.71390    0.54540    0.72420    1.000
    O57      O        0.64405    0.67500    0.59360    1.000
    C132     C        0.64640    0.53930    0.72000    1.000
    O58      O        0.57866    0.67740    0.59300    1.000
    C133     C        0.68490    0.51950    0.74420    1.000
    C134     C        0.64690    0.58800    0.67760    1.000
    H112     H        0.67090    0.60590    0.66480    1.000
    C135     C        0.61100    0.51400    0.73940    1.000
    H113     H        0.61080    0.48150    0.76760    1.000
    O59      O        0.54300    0.52130    0.74280    1.000
    C136     C        0.50930    0.51290    0.71230    1.000
    H114     H        0.51680    0.50530    0.67580    1.000
    H115     H        0.49460    0.47030    0.72410    1.000
    C137     C        0.48440    0.57660    0.71620    1.000
    H116     H        0.48270    0.59210    0.75270    1.000
    H117     H        0.49580    0.61620    0.69570    1.000
    C138     C        0.44420    0.55930    0.69600    1.000
    H118     H        0.42960    0.60390    0.68920    1.000
    H119     H        0.42970    0.53060    0.72170    1.000
    O60      O        0.44910    0.51820    0.64770    1.000
    C139     C        0.41320    0.48690    0.62560    1.000
    C140     C        0.41640    0.43430    0.58910    1.000
    H120     H        0.44120    0.42590    0.57410    1.000
    C141     C        0.35000    0.40720    0.59630    1.000
    H121     H        0.32790    0.37970    0.58660    1.000
    C142     C        0.37730    0.50120    0.64850    1.000
    H122     H        0.37460    0.53790    0.67370    1.000
    C143     C        0.57630    0.53760    0.71530    1.000
    C144     C        0.57570    0.58500    0.67280    1.000
    H123     H        0.55190    0.59950    0.65740    1.000
    O61      O        0.42058    0.32250    0.51370    1.000
    O62      O        0.35515    0.32230    0.51200    1.000
    O63      O        0.27720    0.45670    0.63560    1.000
    O64      O        0.30848    0.51730    0.69690    1.000
    C145     C        0.38520    0.39220    0.57260    1.000
    C146     C        0.34540    0.46030    0.63340    1.000
    C147     C        0.30590    0.47560    0.65840    1.000
    C148     C        0.38620    0.33510    0.53000    1.000
    C149     C        0.73140    0.61360    0.84260    1.000
    O65      O        0.72090    0.55850    0.86450    1.000
    C150     C        0.72370    0.68320    0.86780    1.000
    O66      O        0.75250    0.62210    0.80060    1.000
    C151     C        0.70410    0.68420    0.91430    1.000
    H124     H        0.69590    0.64090    0.93010    1.000
    O67      O        0.72970    0.56050    0.22800    1.000
    O68      O        0.76360    0.62140    0.29000    1.000
    C152     C        0.71340    0.68820    0.18180    1.000
    H125     H        0.70690    0.64380    0.16620    1.000
    C153     C        0.73430    0.68547    0.22720    1.000
    C154     C        0.74403    0.61480    0.25240    1.000
    C155     C        0.49039    0.72960    0.57750    1.000
    N4       N        0.50936    0.77040    0.53920    1.000
    C156     C        0.48931    0.77040    0.49330    1.000
    C157     C        0.44896    0.77040    0.49810    1.000
    C158     C        0.42751    0.72960    0.53670    1.000
    C159     C        0.45103    0.72960    0.58460    1.000
    O69      O        0.67360    0.72630    0.98260    1.000
    O70      O        0.67980    0.77640    0.11290    1.000
    C160     C        0.65020    0.78220    0.00910    1.000
    C161     C        0.65690    0.71590    0.09470    1.000
    H126     H        0.50510    0.72960    0.60860    1.000
    H127     H        0.50200    0.77040    0.46070    1.000
    H128     H        0.43540    0.77040    0.46600    1.000
    H129     H        0.39990    0.72960    0.53560    1.000
    H130     H        0.43950    0.72960    0.61800    1.000
    H131     H        0.61620    0.78780    0.07200    1.000
    H132     H        0.61310    0.71330    0.04240    1.000
    H133     H        0.63010    0.80120    0.98540    1.000
    H134     H        0.66720    0.82230    0.01980    1.000
    H135     H        0.67370    0.67840    0.07950    1.000
    H136     H        0.64120    0.69490    0.12300    1.000
    C162     C        0.44520    0.99400    0.71850    1.000
    C163     C        0.41310    0.06740    0.65440    1.000
    C164     C        0.41850    0.10340    0.60830    1.000
    C165     C        0.35050    0.07530    0.58760    1.000
    C166     C        0.37750    0.03650    0.66650    1.000
    C167     C        0.48670    0.98000    0.73610    1.000
    C168     C        0.64320    0.90760    0.68340    1.000
    C169     C        0.61500    0.00720    0.73070    1.000
    C170     C        0.58110    0.99590    0.70290    1.000
    C171     C        0.58130    0.93900    0.66640    1.000
    C172     C        0.51270    0.03040    0.70370    1.000
    H137     H        0.43300    0.94950    0.70560    1.000
    H138     H        0.42940    0.01290    0.74740    1.000
    H139     H        0.44290    0.12460    0.60000    1.000
    H140     H        0.32900    0.07800    0.56460    1.000
    H141     H        0.37490    0.01220    0.69850    1.000
    H142     H        0.49380    0.92910    0.72970    1.000
    H143     H        0.48950    0.98990    0.77340    1.000
    H144     H        0.66580    0.87960    0.67760    1.000
    H145     H        0.61710    0.04430    0.75560    1.000
    H146     H        0.55780    0.93280    0.64750    1.000
    H147     H        0.51430    0.01430    0.66730    1.000
    H148     H        0.50270    0.08010    0.70460    1.000
    O71      O        0.55020    0.02570    0.72860    1.000
    O72      O        0.44820    0.04670    0.67730    1.000
    Cu9      Cu       0.77358    0.96532    0.33241    1.000
    Cu10     Cu       0.73549    0.03679    0.25742    1.000
    C173     C        0.88930    0.16130    0.10840    1.000
    O73      O        0.81724    0.98830    0.28730    1.000
    C174     C        0.88860    0.10950    0.15450    1.000
    O74      O        0.78610    0.04540    0.22420    1.000
    O75      O        0.85595    0.17500    0.09360    1.000
    C175     C        0.85360    0.03930    0.22000    1.000
    O76      O        0.92134    0.17740    0.09300    1.000
    C176     C        0.81510    0.01950    0.24420    1.000
    C177     C        0.85310    0.08800    0.17760    1.000
    H149     H        0.82910    0.10590    0.16480    1.000
    C178     C        0.88900    0.01400    0.23940    1.000
    H150     H        0.88920    0.98150    0.26760    1.000
    O77      O        0.95700    0.02130    0.24280    1.000
    C179     C        0.99070    0.01290    0.21230    1.000
    H151     H        0.98320    0.00530    0.17580    1.000
    H152     H        0.00540    0.97030    0.22410    1.000
    C180     C        0.01560    0.07660    0.21620    1.000
    H153     H        0.01730    0.09210    0.25270    1.000
    H154     H        0.00420    0.11620    0.19570    1.000
    C181     C        0.05580    0.05930    0.19600    1.000
    H155     H        0.07040    0.10390    0.18920    1.000
    H156     H        0.07030    0.03060    0.22170    1.000
    O78      O        0.05090    0.01820    0.14770    1.000
    C182     C        0.08680    0.98690    0.12560    1.000
    C183     C        0.08360    0.93430    0.08910    1.000
    H157     H        0.05880    0.92590    0.07410    1.000
    C184     C        0.15000    0.90720    0.09630    1.000
    H158     H        0.17210    0.87970    0.08660    1.000
    C185     C        0.12270    0.00120    0.14850    1.000
    H159     H        0.12540    0.03790    0.17370    1.000
    C186     C        0.92370    0.03760    0.21530    1.000
    C187     C        0.92430    0.08500    0.17280    1.000
    H160     H        0.94810    0.09950    0.15740    1.000
    O79      O        0.07942    0.82250    0.01370    1.000
    O80      O        0.14485    0.82230    0.01200    1.000
    O81      O        0.22280    0.95670    0.13560    1.000
    O82      O        0.19152    0.01730    0.19690    1.000
    C188     C        0.11480    0.89220    0.07260    1.000
    C189     C        0.15460    0.96030    0.13340    1.000
    C190     C        0.19410    0.97560    0.15840    1.000
    C191     C        0.11380    0.83510    0.03000    1.000
    C192     C        0.76860    0.11360    0.34260    1.000
    O83      O        0.77910    0.05850    0.36450    1.000
    C193     C        0.77630    0.18320    0.36780    1.000
    O84      O        0.74750    0.12210    0.30060    1.000
    C194     C        0.79590    0.18420    0.41430    1.000
    H161     H        0.80410    0.14090    0.43010    1.000
    O85      O        0.77030    0.06050    0.72800    1.000
    O86      O        0.73640    0.12140    0.79000    1.000
    C195     C        0.78660    0.18820    0.68180    1.000
    H162     H        0.79310    0.14380    0.66620    1.000
    C196     C        0.76570    0.18547    0.72720    1.000
    C197     C        0.75597    0.11480    0.75240    1.000
    C198     C        0.00961    0.22960    0.07750    1.000
    N5       N        0.99064    0.27040    0.03920    1.000
    C199     C        0.01069    0.27040    0.99330    1.000
    C200     C        0.05104    0.27040    0.99810    1.000
    C201     C        0.07249    0.22960    0.03670    1.000
    C202     C        0.04897    0.22960    0.08460    1.000
    O87      O        0.82640    0.22630    0.48260    1.000
    O88      O        0.82020    0.27640    0.61290    1.000
    C203     C        0.84980    0.28220    0.50910    1.000
    C204     C        0.84310    0.21590    0.59470    1.000
    H163     H        0.99490    0.22960    0.10860    1.000
    H164     H        0.99800    0.27040    0.96070    1.000
    H165     H        0.06460    0.27040    0.96600    1.000
    H166     H        0.10010    0.22960    0.03560    1.000
    H167     H        0.06050    0.22960    0.11800    1.000
    H168     H        0.88380    0.28780    0.57200    1.000
    H169     H        0.88690    0.21330    0.54240    1.000
    H170     H        0.86990    0.30120    0.48540    1.000
    H171     H        0.83280    0.32230    0.51980    1.000
    H172     H        0.82630    0.17840    0.57950    1.000
    H173     H        0.85880    0.19490    0.62300    1.000
    C205     C        0.05480    0.49400    0.21850    1.000
    C206     C        0.08690    0.56740    0.15440    1.000
    C207     C        0.08150    0.60340    0.10830    1.000
    C208     C        0.14950    0.57530    0.08760    1.000
    C209     C        0.12250    0.53650    0.16650    1.000
    C210     C        0.01330    0.48000    0.23610    1.000
    C211     C        0.85680    0.40760    0.18340    1.000
    C212     C        0.88500    0.50720    0.23070    1.000
    C213     C        0.91890    0.49590    0.20290    1.000
    C214     C        0.91870    0.43900    0.16640    1.000
    C215     C        0.98730    0.53040    0.20370    1.000
    H174     H        0.06700    0.44950    0.20560    1.000
    H175     H        0.07060    0.51290    0.24740    1.000
    H176     H        0.05710    0.62460    0.10000    1.000
    H177     H        0.17100    0.57800    0.06460    1.000
    H178     H        0.12510    0.51220    0.19850    1.000
    H179     H        0.00620    0.42910    0.22970    1.000
    H180     H        0.01050    0.48990    0.27340    1.000
    H181     H        0.83420    0.37960    0.17760    1.000
    H182     H        0.88290    0.54430    0.25560    1.000
    H183     H        0.94220    0.43280    0.14750    1.000
    H184     H        0.98570    0.51430    0.16730    1.000
    H185     H        0.99730    0.58010    0.20460    1.000
    O89      O        0.94980    0.52570    0.22860    1.000
    O90      O        0.05180    0.54670    0.17730    1.000
    Cu11     Cu       0.72642    0.03468    0.83241    1.000
    Cu12     Cu       0.76451    0.96321    0.75742    1.000
    C216     C        0.61070    0.83870    0.60840    1.000
    O91      O        0.68276    0.01170    0.78730    1.000
    C217     C        0.61140    0.89050    0.65450    1.000
    O92      O        0.71390    0.95460    0.72420    1.000
    O93      O        0.64405    0.82500    0.59360    1.000
    C218     C        0.64640    0.96070    0.72000    1.000
    O94      O        0.57866    0.82260    0.59300    1.000
    C219     C        0.68490    0.98050    0.74420    1.000
    C220     C        0.64690    0.91200    0.67760    1.000
    H186     H        0.67090    0.89410    0.66480    1.000
    C221     C        0.61100    0.98600    0.73940    1.000
    H187     H        0.61080    0.01850    0.76760    1.000
    O95      O        0.54300    0.97870    0.74280    1.000
    C222     C        0.50930    0.98710    0.71230    1.000
    H188     H        0.51680    0.99470    0.67580    1.000
    H189     H        0.49460    0.02970    0.72410    1.000
    C223     C        0.48440    0.92340    0.71620    1.000
    H190     H        0.48270    0.90790    0.75270    1.000
    H191     H        0.49580    0.88380    0.69570    1.000
    C224     C        0.44420    0.94070    0.69600    1.000
    H192     H        0.42960    0.89610    0.68920    1.000
    H193     H        0.42970    0.96940    0.72170    1.000
    O96      O        0.44910    0.98180    0.64770    1.000
    C225     C        0.41320    0.01310    0.62560    1.000
    C226     C        0.41640    0.06570    0.58910    1.000
    H194     H        0.44120    0.07410    0.57410    1.000
    C227     C        0.35000    0.09280    0.59630    1.000
    H195     H        0.32790    0.12030    0.58660    1.000
    C228     C        0.37730    0.99880    0.64850    1.000
    H196     H        0.37460    0.96210    0.67370    1.000
    C229     C        0.57630    0.96240    0.71530    1.000
    C230     C        0.57570    0.91500    0.67280    1.000
    H197     H        0.55190    0.90050    0.65740    1.000
    O97      O        0.42058    0.17750    0.51370    1.000
    O98      O        0.35515    0.17770    0.51200    1.000
    O99      O        0.27720    0.04330    0.63560    1.000
    O100     O        0.30848    0.98270    0.69690    1.000
    C231     C        0.38520    0.10780    0.57260    1.000
    C232     C        0.34540    0.03970    0.63340    1.000
    C233     C        0.30590    0.02440    0.65840    1.000
    C234     C        0.38620    0.16490    0.53000    1.000
    C235     C        0.73140    0.88640    0.84260    1.000
    O101     O        0.72090    0.94150    0.86450    1.000
    C236     C        0.72370    0.81680    0.86780    1.000
    O102     O        0.75250    0.87790    0.80060    1.000
    C237     C        0.70410    0.81580    0.91430    1.000
    H198     H        0.69590    0.85910    0.93010    1.000
    O103     O        0.72970    0.93950    0.22800    1.000
    O104     O        0.76360    0.87860    0.29000    1.000
    C238     C        0.71340    0.81180    0.18180    1.000
    H199     H        0.70690    0.85620    0.16620    1.000
    C239     C        0.73430    0.81453    0.22720    1.000
    C240     C        0.74403    0.88520    0.25240    1.000
    C241     C        0.49039    0.77040    0.57750    1.000
    N6       N        0.50936    0.72960    0.53920    1.000
    C242     C        0.48931    0.72960    0.49330    1.000
    C243     C        0.44896    0.72960    0.49810    1.000
    C244     C        0.42751    0.77040    0.53670    1.000
    C245     C        0.45103    0.77040    0.58460    1.000
    O105     O        0.67360    0.77370    0.98260    1.000
    O106     O        0.67980    0.72360    0.11290    1.000
    C246     C        0.65020    0.71780    0.00910    1.000
    C247     C        0.65690    0.78410    0.09470    1.000
    H200     H        0.50510    0.77040    0.60860    1.000
    H201     H        0.50200    0.72960    0.46070    1.000
    H202     H        0.43540    0.72960    0.46600    1.000
    H203     H        0.39990    0.77040    0.53560    1.000
    H204     H        0.43950    0.77040    0.61800    1.000
    H205     H        0.61620    0.71220    0.07200    1.000
    H206     H        0.61310    0.78670    0.04240    1.000
    H207     H        0.63010    0.69880    0.98540    1.000
    H208     H        0.66720    0.67770    0.01980    1.000
    H209     H        0.67370    0.82160    0.07950    1.000
    H210     H        0.64120    0.80510    0.12300    1.000
    C248     C        0.44520    0.50600    0.71850    1.000
    C249     C        0.41310    0.43260    0.65440    1.000
    C250     C        0.41850    0.39660    0.60830    1.000
    C251     C        0.35050    0.42470    0.58760    1.000
    C252     C        0.37750    0.46350    0.66650    1.000
    C253     C        0.48670    0.52000    0.73610    1.000
    C254     C        0.64320    0.59240    0.68340    1.000
    C255     C        0.61500    0.49280    0.73070    1.000
    C256     C        0.58110    0.50410    0.70290    1.000
    C257     C        0.58130    0.56100    0.66640    1.000
    C258     C        0.51270    0.46960    0.70370    1.000
    H211     H        0.43300    0.55050    0.70560    1.000
    H212     H        0.42940    0.48710    0.74740    1.000
    H213     H        0.44290    0.37540    0.60000    1.000
    H214     H        0.32900    0.42200    0.56460    1.000
    H215     H        0.37490    0.48780    0.69850    1.000
    H216     H        0.49380    0.57090    0.72970    1.000
    H217     H        0.48950    0.51010    0.77340    1.000
    H218     H        0.66580    0.62040    0.67760    1.000
    H219     H        0.61710    0.45570    0.75560    1.000
    H220     H        0.55780    0.56720    0.64750    1.000
    H221     H        0.51430    0.48570    0.66730    1.000
    H222     H        0.50270    0.41990    0.70460    1.000
    O107     O        0.55020    0.47430    0.72860    1.000
    O108     O        0.44820    0.45330    0.67730    1.000
    Cu13     Cu       0.22642    0.46532    0.66759    1.000
    Cu14     Cu       0.26451    0.53679    0.74258    1.000
    C259     C        0.11070    0.66130    0.89160    1.000
    O109     O        0.18276    0.48830    0.71270    1.000
    C260     C        0.11140    0.60950    0.84550    1.000
    O110     O        0.21390    0.54540    0.77580    1.000
    O111     O        0.14405    0.67500    0.90640    1.000
    C261     C        0.14640    0.53930    0.78000    1.000
    O112     O        0.07866    0.67740    0.90700    1.000
    C262     C        0.18490    0.51950    0.75580    1.000
    C263     C        0.14690    0.58800    0.82240    1.000
    H223     H        0.17090    0.60590    0.83520    1.000
    C264     C        0.11100    0.51400    0.76060    1.000
    H224     H        0.11080    0.48150    0.73240    1.000
    O113     O        0.04300    0.52130    0.75720    1.000
    C265     C        0.00930    0.51290    0.78770    1.000
    H225     H        0.01680    0.50530    0.82420    1.000
    H226     H        0.99460    0.47030    0.77590    1.000
    C266     C        0.98440    0.57660    0.78380    1.000
    H227     H        0.98270    0.59210    0.74730    1.000
    H228     H        0.99580    0.61620    0.80430    1.000
    C267     C        0.94420    0.55930    0.80400    1.000
    H229     H        0.92960    0.60390    0.81080    1.000
    H230     H        0.92970    0.53060    0.77830    1.000
    O114     O        0.94910    0.51820    0.85230    1.000
    C268     C        0.91320    0.48690    0.87440    1.000
    C269     C        0.91640    0.43430    0.91090    1.000
    H231     H        0.94120    0.42590    0.92590    1.000
    C270     C        0.85000    0.40720    0.90370    1.000
    H232     H        0.82790    0.37970    0.91340    1.000
    C271     C        0.87730    0.50120    0.85150    1.000
    H233     H        0.87460    0.53790    0.82630    1.000
    C272     C        0.07630    0.53760    0.78470    1.000
    C273     C        0.07570    0.58500    0.82720    1.000
    H234     H        0.05190    0.59950    0.84260    1.000
    O115     O        0.92058    0.32250    0.98630    1.000
    O116     O        0.85515    0.32230    0.98800    1.000
    O117     O        0.77720    0.45670    0.86440    1.000
    O118     O        0.80848    0.51730    0.80310    1.000
    C274     C        0.88520    0.39220    0.92740    1.000
    C275     C        0.84540    0.46030    0.86660    1.000
    C276     C        0.80590    0.47560    0.84160    1.000
    C277     C        0.88620    0.33510    0.97000    1.000
    C278     C        0.23140    0.61360    0.65740    1.000
    O119     O        0.22090    0.55850    0.63550    1.000
    C279     C        0.22370    0.68320    0.63220    1.000
    O120     O        0.25250    0.62210    0.69940    1.000
    C280     C        0.20410    0.68420    0.58570    1.000
    H235     H        0.19590    0.64090    0.56990    1.000
    O121     O        0.22970    0.56050    0.27200    1.000
    O122     O        0.26360    0.62140    0.21000    1.000
    C281     C        0.21340    0.68820    0.31820    1.000
    H236     H        0.20690    0.64380    0.33380    1.000
    C282     C        0.23430    0.68547    0.27280    1.000
    C283     C        0.24403    0.61480    0.24760    1.000
    C284     C        0.99039    0.72960    0.92250    1.000
    N7       N        0.00936    0.77040    0.96080    1.000
    C285     C        0.98931    0.77040    0.00670    1.000
    C286     C        0.94896    0.77040    0.00190    1.000
    C287     C        0.92751    0.72960    0.96330    1.000
    C288     C        0.95103    0.72960    0.91540    1.000
    O123     O        0.17360    0.72630    0.51740    1.000
    O124     O        0.17980    0.77640    0.38710    1.000
    C289     C        0.15020    0.78220    0.49090    1.000
    C290     C        0.15690    0.71590    0.40530    1.000
    H237     H        0.00510    0.72960    0.89140    1.000
    H238     H        0.00200    0.77040    0.03930    1.000
    H239     H        0.93540    0.77040    0.03400    1.000
    H240     H        0.89990    0.72960    0.96440    1.000
    H241     H        0.93950    0.72960    0.88200    1.000
    H242     H        0.11620    0.78780    0.42800    1.000
    H243     H        0.11310    0.71330    0.45760    1.000
    H244     H        0.13010    0.80120    0.51460    1.000
    H245     H        0.16720    0.82230    0.48020    1.000
    H246     H        0.17370    0.67840    0.42050    1.000
    H247     H        0.14120    0.69490    0.37700    1.000
    C291     C        0.94520    0.99400    0.78150    1.000
    C292     C        0.91310    0.06740    0.84560    1.000
    C293     C        0.91850    0.10340    0.89170    1.000
    C294     C        0.85050    0.07530    0.91240    1.000
    C295     C        0.87750    0.03650    0.83350    1.000
    C296     C        0.98670    0.98000    0.76390    1.000
    C297     C        0.14320    0.90760    0.81660    1.000
    C298     C        0.11500    0.00720    0.76930    1.000
    C299     C        0.08110    0.99590    0.79710    1.000
    C300     C        0.08130    0.93900    0.83360    1.000
    C301     C        0.01270    0.03040    0.79630    1.000
    H248     H        0.93300    0.94950    0.79440    1.000
    H249     H        0.92940    0.01290    0.75260    1.000
    H250     H        0.94290    0.12460    0.90000    1.000
    H251     H        0.82900    0.07800    0.93540    1.000
    H252     H        0.87490    0.01220    0.80150    1.000
    H253     H        0.99380    0.92910    0.77030    1.000
    H254     H        0.98950    0.98990    0.72660    1.000
    H255     H        0.16580    0.87960    0.82240    1.000
    H256     H        0.11710    0.04430    0.74440    1.000
    H257     H        0.05780    0.93280    0.85250    1.000
    H258     H        0.01430    0.01430    0.83270    1.000
    H259     H        0.00270    0.08010    0.79540    1.000
    O125     O        0.05020    0.02570    0.77140    1.000
    O126     O        0.94820    0.04670    0.82270    1.000
    Cu15     Cu       0.27358    0.53468    0.16759    1.000
    Cu16     Cu       0.23549    0.46321    0.24258    1.000
    C302     C        0.38930    0.33870    0.39160    1.000
    O127     O        0.31724    0.51170    0.21270    1.000
    C303     C        0.38860    0.39050    0.34550    1.000
    O128     O        0.28610    0.45460    0.27580    1.000
    O129     O        0.35595    0.32500    0.40640    1.000
    C304     C        0.35360    0.46070    0.28000    1.000
    O130     O        0.42134    0.32260    0.40700    1.000
    C305     C        0.31510    0.48050    0.25580    1.000
    C306     C        0.35310    0.41200    0.32240    1.000
    H260     H        0.32910    0.39410    0.33520    1.000
    C307     C        0.38900    0.48600    0.26060    1.000
    H261     H        0.38920    0.51850    0.23240    1.000
    O131     O        0.45700    0.47870    0.25720    1.000
    C308     C        0.49070    0.48710    0.28770    1.000
    H262     H        0.48320    0.49470    0.32420    1.000
    H263     H        0.50540    0.52970    0.27590    1.000
    C309     C        0.51560    0.42340    0.28380    1.000
    H264     H        0.51730    0.40790    0.24730    1.000
    H265     H        0.50420    0.38380    0.30430    1.000
    C310     C        0.55580    0.44070    0.30400    1.000
    H266     H        0.57040    0.39610    0.31080    1.000
    H267     H        0.57030    0.46940    0.27830    1.000
    O132     O        0.55090    0.48180    0.35230    1.000
    C311     C        0.58680    0.51310    0.37440    1.000
    C312     C        0.58360    0.56570    0.41090    1.000
    H268     H        0.55880    0.57410    0.42590    1.000
    C313     C        0.65000    0.59280    0.40370    1.000
    H269     H        0.67210    0.62030    0.41340    1.000
    C314     C        0.62270    0.49880    0.35150    1.000
    H270     H        0.62540    0.46210    0.32630    1.000
    C315     C        0.42370    0.46240    0.28470    1.000
    C316     C        0.42430    0.41500    0.32720    1.000
    H271     H        0.44810    0.40050    0.34260    1.000
    O133     O        0.57942    0.67750    0.48630    1.000
    O134     O        0.64485    0.67770    0.48800    1.000
    O135     O        0.72280    0.54330    0.36440    1.000
    O136     O        0.69152    0.48270    0.30310    1.000
    C317     C        0.61480    0.60780    0.42740    1.000
    C318     C        0.65460    0.53970    0.36660    1.000
    C319     C        0.69410    0.52440    0.34160    1.000
    C320     C        0.61380    0.66490    0.47000    1.000
    C321     C        0.26860    0.38640    0.15740    1.000
    O137     O        0.27910    0.44150    0.13550    1.000
    C322     C        0.27630    0.31680    0.13220    1.000
    O138     O        0.24750    0.37790    0.19940    1.000
    C323     C        0.29590    0.31580    0.08570    1.000
    H272     H        0.30410    0.35910    0.06990    1.000
    O139     O        0.27030    0.43950    0.77200    1.000
    O140     O        0.23640    0.37860    0.71000    1.000
    C324     C        0.28660    0.31180    0.81820    1.000
    H273     H        0.29310    0.35620    0.83380    1.000
    C325     C        0.26570    0.31453    0.77280    1.000
    C326     C        0.25597    0.38520    0.74760    1.000
    C327     C        0.50961    0.27040    0.42250    1.000
    N8       N        0.49064    0.22960    0.46080    1.000
    C328     C        0.51069    0.22960    0.50670    1.000
    C329     C        0.55104    0.22960    0.50190    1.000
    C330     C        0.57249    0.27040    0.46330    1.000
    C331     C        0.54897    0.27040    0.41540    1.000
    O141     O        0.32640    0.27370    0.01740    1.000
    O142     O        0.32020    0.22360    0.88710    1.000
    C332     C        0.34980    0.21780    0.99090    1.000
    C333     C        0.34310    0.28410    0.90530    1.000
    H274     H        0.49490    0.27040    0.39140    1.000
    H275     H        0.49800    0.22960    0.53930    1.000
    H276     H        0.56460    0.22960    0.53400    1.000
    H277     H        0.60010    0.27040    0.46440    1.000
    H278     H        0.56050    0.27040    0.38200    1.000
    H279     H        0.38380    0.21220    0.92800    1.000
    H280     H        0.38690    0.28670    0.95760    1.000
    H281     H        0.36990    0.19880    0.01460    1.000
    H282     H        0.33280    0.17770    0.98020    1.000
    H283     H        0.32630    0.32160    0.92050    1.000
    H284     H        0.35880    0.30510    0.87700    1.000
    C334     C        0.55480    0.00600    0.28150    1.000
    C335     C        0.58690    0.93260    0.34560    1.000
    C336     C        0.58150    0.89660    0.39170    1.000
    C337     C        0.64950    0.92470    0.41240    1.000
    C338     C        0.62250    0.96350    0.33350    1.000
    C339     C        0.51330    0.02000    0.26390    1.000
    C340     C        0.35680    0.09240    0.31660    1.000
    C341     C        0.38500    0.99280    0.26930    1.000
    C342     C        0.41890    0.00410    0.29710    1.000
    C343     C        0.41870    0.06100    0.33360    1.000
    C344     C        0.48730    0.96960    0.29630    1.000
    H285     H        0.56700    0.05050    0.29440    1.000
    H286     H        0.57060    0.98710    0.25260    1.000
    H287     H        0.55710    0.87540    0.40000    1.000
    H288     H        0.67100    0.92200    0.43540    1.000
    H289     H        0.62510    0.98780    0.30150    1.000
    H290     H        0.50620    0.07090    0.27030    1.000
    H291     H        0.51050    0.01010    0.22660    1.000
    H292     H        0.33420    0.12040    0.32240    1.000
    H293     H        0.38290    0.95570    0.24440    1.000
    H294     H        0.44220    0.06720    0.35250    1.000
    H295     H        0.48570    0.98570    0.33270    1.000
    H296     H        0.49730    0.91990    0.29540    1.000
    O143     O        0.44980    0.97430    0.27140    1.000
    O144     O        0.55180    0.95330    0.32270    1.000
    Cu17     Cu       0.15003    0.75000    0.95891    1.000
    Cu18     Cu       0.07238    0.75000    0.96060    1.000
    C345     C        0.23490    0.75000    0.65150    1.000
    H297     H        0.25180    0.75000    0.68060    1.000
    C346     C        0.19660    0.75000    0.56220    1.000
    C347     C        0.20110    0.75000    0.34320    1.000
    C348     C        0.24700    0.75000    0.25170    1.000
    H298     H        0.26420    0.75000    0.22300    1.000
    C349     C        0.13170    0.75000    0.44520    1.000
    Cu19     Cu       0.34997    0.25000    0.45891    1.000
    Cu20     Cu       0.42762    0.25000    0.46060    1.000
    C350     C        0.26510    0.25000    0.15150    1.000
    H299     H        0.24820    0.25000    0.18060    1.000
    C351     C        0.30340    0.25000    0.06220    1.000
    C352     C        0.29890    0.25000    0.84320    1.000
    C353     C        0.25300    0.25000    0.75170    1.000
    H300     H        0.23580    0.25000    0.72300    1.000
    C354     C        0.36830    0.25000    0.94520    1.000
    Cu21     Cu       0.84997    0.25000    0.04109    1.000
    Cu22     Cu       0.92762    0.25000    0.03940    1.000
    C355     C        0.76510    0.25000    0.34850    1.000
    H301     H        0.74820    0.25000    0.31940    1.000
    C356     C        0.80340    0.25000    0.43780    1.000
    C357     C        0.79890    0.25000    0.65680    1.000
    C358     C        0.75300    0.25000    0.74830    1.000
    H302     H        0.73580    0.25000    0.77700    1.000
    C359     C        0.86830    0.25000    0.55480    1.000
    Cu23     Cu       0.65003    0.75000    0.54109    1.000
    Cu24     Cu       0.57238    0.75000    0.53940    1.000
    C360     C        0.73490    0.75000    0.84850    1.000
    H303     H        0.75180    0.75000    0.81940    1.000
    C361     C        0.69660    0.75000    0.93780    1.000
    C362     C        0.70110    0.75000    0.15680    1.000
    C363     C        0.74700    0.75000    0.24830    1.000
    H304     H        0.76420    0.75000    0.27700    1.000
    C364     C        0.63170    0.75000    0.05480    1.000
