# CIF file generated by openbabel 3.1.0, see https://openbabel.org
data_I
_chemical_name_common 'image0'
_cell_length_a 20.0034
_cell_length_b 20.2188
_cell_length_c 20.9731
_cell_angle_alpha 90
_cell_angle_beta 90
_cell_angle_gamma 90
_space_group_name_H-M_alt 'P 1'
_space_group_name_Hall 'P 1'
loop_
    _symmetry_equiv_pos_as_xyz
    x,y,z
loop_
    _atom_site_label
    _atom_site_type_symbol
    _atom_site_fract_x
    _atom_site_fract_y
    _atom_site_fract_z
    _atom_site_occupancy
    Be1      Be       0.59820    0.49290    0.63710    1.000
    Be2      Be       0.54310    0.29360    0.62110    1.000
    Be3      Be       0.36930    0.36280    0.55020    1.000
    Be4      Be       0.18020    0.40950    0.48990    1.000
    Be5      Be       0.13880    0.43900    0.67940    1.000
    Be6      Be       0.04970    0.61080    0.62630    1.000
    P1       P        0.63286    0.36973    0.70394    1.000
    H1       H        0.69410    0.34570    0.71370    1.000
    P2       P        0.50339    0.41899    0.56226    1.000
    H2       H        0.51920    0.43170    0.49450    1.000
    P3       P        0.40938    0.25026    0.62333    1.000
    H3       H        0.36330    0.26140    0.66420    1.000
    P4       P        0.31267    0.41712    0.43430    1.000
    H4       H        0.30170    0.38720    0.38230    1.000
    P5       P        0.23799    0.36396    0.60771    1.000
    H5       H        0.23950    0.30160    0.63550    1.000
    P6       P        0.08055    0.48376    0.56331    1.000
    H6       H        0.02220    0.45750    0.53650    1.000
    P7       P        0.11249    0.56223    0.74204    1.000
    H7       H        0.15240    0.61260    0.75270    1.000
    P8       P        0.92854    0.65773    0.57157    1.000
    H8       H        0.95660    0.64840    0.52090    1.000
    O1       O        0.60455    0.38764    0.76922    1.000
    O2       O        0.59491    0.31141    0.67760    1.000
    O3       O        0.63947    0.42824    0.66052    1.000
    O4       O        0.52648    0.47162    0.60793    1.000
    O5       O        0.47168    0.27748    0.65453    1.000
    O6       O        0.39043    0.28720    0.56320    1.000
    O7       O        0.53748    0.35302    0.56989    1.000
    O8       O        0.42807    0.41560    0.56540    1.000
    O9       O        0.30967    0.38408    0.59782    1.000
    O10      O        0.34553    0.36612    0.47632    1.000
    O11      O        0.35714    0.47429    0.41898    1.000
    O12      O        0.24695    0.44195    0.46009    1.000
    O13      O        0.19757    0.35799    0.54736    1.000
    O14      O        0.20865    0.40870    0.65724    1.000
    O15      O        0.13441    0.46990    0.51515    1.000
    O16      O        0.08481    0.44201    0.62282    1.000
    O17      O        0.15474    0.50904    0.71185    1.000
    O18      O        0.08364    0.54396    0.80594    1.000
    O19      O        0.07713    0.55685    0.57591    1.000
    O20      O        0.05743    0.58768    0.69956    1.000
    O21      O        0.41118    0.17743    0.61014    1.000
    O22      O        0.96861    0.61869    0.61815    1.000
    O23      O        0.85772    0.63135    0.56605    1.000
    O24      O        0.92842    0.73093    0.58221    1.000
    P9       P        0.90950    0.66210    0.60310    1.000
    Be7      Be       0.90180    0.50710    0.13710    1.000
    Be8      Be       0.95690    0.70640    0.12110    1.000
    Be9      Be       0.13070    0.63720    0.05020    1.000
    Be10     Be       0.31980    0.59050    0.98990    1.000
    Be11     Be       0.36120    0.56100    0.17940    1.000
    Be12     Be       0.45030    0.38920    0.12630    1.000
    P10      P        0.86714    0.63027    0.20394    1.000
    H9       H        0.80590    0.65430    0.21370    1.000
    P11      P        0.99661    0.58101    0.06226    1.000
    H10      H        0.98080    0.56830    0.99450    1.000
    P12      P        0.09062    0.74974    0.12333    1.000
    H11      H        0.13670    0.73860    0.16420    1.000
    P13      P        0.18733    0.58288    0.93430    1.000
    H12      H        0.19830    0.61280    0.88230    1.000
    P14      P        0.26201    0.63604    0.10771    1.000
    H13      H        0.26050    0.69840    0.13550    1.000
    P15      P        0.41945    0.51624    0.06331    1.000
    H14      H        0.47780    0.54250    0.03650    1.000
    P16      P        0.38751    0.43777    0.24204    1.000
    H15      H        0.34760    0.38740    0.25270    1.000
    P17      P        0.57146    0.34227    0.07157    1.000
    H16      H        0.54340    0.35160    0.02090    1.000
    O25      O        0.89545    0.61236    0.26922    1.000
    O26      O        0.90509    0.68859    0.17760    1.000
    O27      O        0.86053    0.57176    0.16052    1.000
    O28      O        0.97352    0.52838    0.10793    1.000
    O29      O        0.02832    0.72252    0.15453    1.000
    O30      O        0.10957    0.71280    0.06320    1.000
    O31      O        0.96252    0.64698    0.06989    1.000
    O32      O        0.07193    0.58440    0.06540    1.000
    O33      O        0.19033    0.61592    0.09782    1.000
    O34      O        0.15447    0.63388    0.97632    1.000
    O35      O        0.14286    0.52571    0.91898    1.000
    O36      O        0.25305    0.55805    0.96009    1.000
    O37      O        0.30243    0.64201    0.04736    1.000
    O38      O        0.29135    0.59130    0.15724    1.000
    O39      O        0.36559    0.53010    0.01515    1.000
    O40      O        0.41519    0.55799    0.12282    1.000
    O41      O        0.34526    0.49096    0.21185    1.000
    O42      O        0.41636    0.45604    0.30594    1.000
    O43      O        0.42287    0.44315    0.07591    1.000
    O44      O        0.44257    0.41232    0.19956    1.000
    O45      O        0.08882    0.82257    0.11014    1.000
    O46      O        0.53139    0.38131    0.11815    1.000
    O47      O        0.64228    0.36865    0.06605    1.000
    O48      O        0.57158    0.26907    0.08221    1.000
    P18      P        0.59050    0.33790    0.10310    1.000
    Be13     Be       0.40180    0.99290    0.86290    1.000
    Be14     Be       0.45690    0.79360    0.87890    1.000
    Be15     Be       0.63070    0.86280    0.94980    1.000
    Be16     Be       0.81980    0.90950    0.01010    1.000
    Be17     Be       0.86120    0.93900    0.82060    1.000
    Be18     Be       0.95030    0.11080    0.87370    1.000
    P19      P        0.36714    0.86973    0.79606    1.000
    H17      H        0.30590    0.84570    0.78630    1.000
    P20      P        0.49661    0.91899    0.93774    1.000
    H18      H        0.48080    0.93170    0.00550    1.000
    P21      P        0.59062    0.75026    0.87667    1.000
    H19      H        0.63670    0.76140    0.83580    1.000
    P22      P        0.68733    0.91712    0.06570    1.000
    H20      H        0.69830    0.88720    0.11770    1.000
    P23      P        0.76201    0.86396    0.89229    1.000
    H21      H        0.76050    0.80160    0.86450    1.000
    P24      P        0.91945    0.98376    0.93669    1.000
    H22      H        0.97780    0.95750    0.96350    1.000
    P25      P        0.88751    0.06223    0.75796    1.000
    H23      H        0.84760    0.11260    0.74730    1.000
    P26      P        0.07146    0.15773    0.92843    1.000
    H24      H        0.04340    0.14840    0.97910    1.000
    O49      O        0.39545    0.88764    0.73078    1.000
    O50      O        0.40509    0.81141    0.82240    1.000
    O51      O        0.36053    0.92824    0.83948    1.000
    O52      O        0.47352    0.97162    0.89207    1.000
    O53      O        0.52832    0.77748    0.84547    1.000
    O54      O        0.60957    0.78720    0.93680    1.000
    O55      O        0.46252    0.85302    0.93011    1.000
    O56      O        0.57193    0.91560    0.93460    1.000
    O57      O        0.69033    0.88408    0.90218    1.000
    O58      O        0.65447    0.86612    0.02368    1.000
    O59      O        0.64286    0.97429    0.08102    1.000
    O60      O        0.75305    0.94195    0.03991    1.000
    O61      O        0.80243    0.85799    0.95264    1.000
    O62      O        0.79135    0.90870    0.84276    1.000
    O63      O        0.86559    0.96990    0.98485    1.000
    O64      O        0.91519    0.94201    0.87718    1.000
    O65      O        0.84526    0.00904    0.78815    1.000
    O66      O        0.91636    0.04396    0.69406    1.000
    O67      O        0.92287    0.05685    0.92409    1.000
    O68      O        0.94257    0.08768    0.80044    1.000
    O69      O        0.58882    0.67743    0.88986    1.000
    O70      O        0.03139    0.11869    0.88185    1.000
    O71      O        0.14228    0.13135    0.93395    1.000
    O72      O        0.07158    0.23093    0.91779    1.000
    P27      P        0.09050    0.16210    0.89690    1.000
    Be19     Be       0.09820    0.00710    0.36290    1.000
    Be20     Be       0.04310    0.20640    0.37890    1.000
    Be21     Be       0.86930    0.13720    0.44980    1.000
    Be22     Be       0.68020    0.09050    0.51010    1.000
    Be23     Be       0.63880    0.06100    0.32060    1.000
    Be24     Be       0.54970    0.88920    0.37370    1.000
    P28      P        0.13286    0.13027    0.29606    1.000
    H25      H        0.19410    0.15430    0.28630    1.000
    P29      P        0.00339    0.08101    0.43774    1.000
    H26      H        0.01920    0.06830    0.50550    1.000
    P30      P        0.90938    0.24974    0.37667    1.000
    H27      H        0.86330    0.23860    0.33580    1.000
    P31      P        0.81267    0.08288    0.56570    1.000
    H28      H        0.80170    0.11280    0.61770    1.000
    P32      P        0.73799    0.13604    0.39229    1.000
    H29      H        0.73950    0.19840    0.36450    1.000
    P33      P        0.58055    0.01624    0.43669    1.000
    H30      H        0.52220    0.04250    0.46350    1.000
    P34      P        0.61249    0.93777    0.25796    1.000
    H31      H        0.65240    0.88740    0.24730    1.000
    P35      P        0.42854    0.84227    0.42843    1.000
    H32      H        0.45660    0.85160    0.47910    1.000
    O73      O        0.10455    0.11236    0.23078    1.000
    O74      O        0.09491    0.18859    0.32240    1.000
    O75      O        0.13947    0.07176    0.33948    1.000
    O76      O        0.02648    0.02838    0.39207    1.000
    O77      O        0.97168    0.22252    0.34547    1.000
    O78      O        0.89043    0.21280    0.43680    1.000
    O79      O        0.03748    0.14698    0.43011    1.000
    O80      O        0.92807    0.08440    0.43460    1.000
    O81      O        0.80967    0.11592    0.40218    1.000
    O82      O        0.84553    0.13388    0.52368    1.000
    O83      O        0.85714    0.02571    0.58102    1.000
    O84      O        0.74695    0.05805    0.53991    1.000
    O85      O        0.69757    0.14201    0.45264    1.000
    O86      O        0.70865    0.09130    0.34276    1.000
    O87      O        0.63441    0.03010    0.48485    1.000
    O88      O        0.58481    0.05799    0.37718    1.000
    O89      O        0.65474    0.99096    0.28815    1.000
    O90      O        0.58364    0.95604    0.19406    1.000
    O91      O        0.57713    0.94315    0.42409    1.000
    O92      O        0.55743    0.91232    0.30044    1.000
    O93      O        0.91118    0.32257    0.38986    1.000
    O94      O        0.46861    0.88131    0.38185    1.000
    O95      O        0.35772    0.86865    0.43395    1.000
    O96      O        0.42842    0.76907    0.41779    1.000
    P36      P        0.40950    0.83790    0.39690    1.000
    Be25     Be       0.40180    0.50710    0.36290    1.000
    Be26     Be       0.45690    0.70640    0.37890    1.000
    Be27     Be       0.63070    0.63720    0.44980    1.000
    Be28     Be       0.81980    0.59050    0.51010    1.000
    Be29     Be       0.86120    0.56100    0.32060    1.000
    Be30     Be       0.95030    0.38920    0.37370    1.000
    P37      P        0.36714    0.63027    0.29606    1.000
    H33      H        0.30590    0.65430    0.28630    1.000
    P38      P        0.49661    0.58101    0.43774    1.000
    H34      H        0.48080    0.56830    0.50550    1.000
    P39      P        0.59062    0.74974    0.37667    1.000
    H35      H        0.63670    0.73860    0.33580    1.000
    P40      P        0.68733    0.58288    0.56570    1.000
    H36      H        0.69830    0.61280    0.61770    1.000
    P41      P        0.76201    0.63604    0.39229    1.000
    H37      H        0.76050    0.69840    0.36450    1.000
    P42      P        0.91945    0.51624    0.43669    1.000
    H38      H        0.97780    0.54250    0.46350    1.000
    P43      P        0.88751    0.43777    0.25796    1.000
    H39      H        0.84760    0.38740    0.24730    1.000
    P44      P        0.07146    0.34227    0.42843    1.000
    H40      H        0.04340    0.35160    0.47910    1.000
    O97      O        0.39545    0.61236    0.23078    1.000
    O98      O        0.40509    0.68859    0.32240    1.000
    O99      O        0.36053    0.57176    0.33948    1.000
    O100     O        0.47352    0.52838    0.39207    1.000
    O101     O        0.52832    0.72252    0.34547    1.000
    O102     O        0.60957    0.71280    0.43680    1.000
    O103     O        0.46252    0.64698    0.43011    1.000
    O104     O        0.57193    0.58440    0.43460    1.000
    O105     O        0.69033    0.61592    0.40218    1.000
    O106     O        0.65447    0.63388    0.52368    1.000
    O107     O        0.64286    0.52571    0.58102    1.000
    O108     O        0.75305    0.55805    0.53991    1.000
    O109     O        0.80243    0.64201    0.45264    1.000
    O110     O        0.79135    0.59130    0.34276    1.000
    O111     O        0.86559    0.53010    0.48485    1.000
    O112     O        0.91519    0.55799    0.37718    1.000
    O113     O        0.84526    0.49096    0.28815    1.000
    O114     O        0.91636    0.45604    0.19406    1.000
    O115     O        0.92287    0.44315    0.42409    1.000
    O116     O        0.94257    0.41232    0.30044    1.000
    O117     O        0.58882    0.82257    0.38986    1.000
    O118     O        0.03139    0.38131    0.38185    1.000
    O119     O        0.14228    0.36865    0.43395    1.000
    O120     O        0.07158    0.26907    0.41779    1.000
    P45      P        0.09050    0.33790    0.39690    1.000
    Be31     Be       0.09820    0.49290    0.86290    1.000
    Be32     Be       0.04310    0.29360    0.87890    1.000
    Be33     Be       0.86930    0.36280    0.94980    1.000
    Be34     Be       0.68020    0.40950    0.01010    1.000
    Be35     Be       0.63880    0.43900    0.82060    1.000
    Be36     Be       0.54970    0.61080    0.87370    1.000
    P46      P        0.13286    0.36973    0.79606    1.000
    H41      H        0.19410    0.34570    0.78630    1.000
    P47      P        0.00339    0.41899    0.93774    1.000
    H42      H        0.01920    0.43170    0.00550    1.000
    P48      P        0.90938    0.25026    0.87667    1.000
    H43      H        0.86330    0.26140    0.83580    1.000
    P49      P        0.81267    0.41712    0.06570    1.000
    H44      H        0.80170    0.38720    0.11770    1.000
    P50      P        0.73799    0.36396    0.89229    1.000
    H45      H        0.73950    0.30160    0.86450    1.000
    P51      P        0.58055    0.48376    0.93669    1.000
    H46      H        0.52220    0.45750    0.96350    1.000
    P52      P        0.61249    0.56223    0.75796    1.000
    H47      H        0.65240    0.61260    0.74730    1.000
    P53      P        0.42854    0.65773    0.92843    1.000
    H48      H        0.45660    0.64840    0.97910    1.000
    O121     O        0.10455    0.38764    0.73078    1.000
    O122     O        0.09491    0.31141    0.82240    1.000
    O123     O        0.13947    0.42824    0.83948    1.000
    O124     O        0.02648    0.47162    0.89207    1.000
    O125     O        0.97168    0.27748    0.84547    1.000
    O126     O        0.89043    0.28720    0.93680    1.000
    O127     O        0.03748    0.35302    0.93011    1.000
    O128     O        0.92807    0.41560    0.93460    1.000
    O129     O        0.80967    0.38408    0.90218    1.000
    O130     O        0.84553    0.36612    0.02368    1.000
    O131     O        0.85714    0.47429    0.08102    1.000
    O132     O        0.74695    0.44195    0.03991    1.000
    O133     O        0.69757    0.35799    0.95264    1.000
    O134     O        0.70865    0.40870    0.84276    1.000
    O135     O        0.63441    0.46990    0.98485    1.000
    O136     O        0.58481    0.44201    0.87718    1.000
    O137     O        0.65474    0.50904    0.78815    1.000
    O138     O        0.58364    0.54396    0.69406    1.000
    O139     O        0.57713    0.55685    0.92409    1.000
    O140     O        0.55743    0.58768    0.80044    1.000
    O141     O        0.91118    0.17743    0.88986    1.000
    O142     O        0.46861    0.61869    0.88185    1.000
    O143     O        0.35772    0.63135    0.93395    1.000
    O144     O        0.42842    0.73093    0.91779    1.000
    P54      P        0.40950    0.66210    0.89690    1.000
    Be37     Be       0.59820    0.00710    0.13710    1.000
    Be38     Be       0.54310    0.20640    0.12110    1.000
    Be39     Be       0.36930    0.13720    0.05020    1.000
    Be40     Be       0.18020    0.09050    0.98990    1.000
    Be41     Be       0.13880    0.06100    0.17940    1.000
    Be42     Be       0.04970    0.88920    0.12630    1.000
    P55      P        0.63286    0.13027    0.20394    1.000
    H49      H        0.69410    0.15430    0.21370    1.000
    P56      P        0.50339    0.08101    0.06226    1.000
    H50      H        0.51920    0.06830    0.99450    1.000
    P57      P        0.40938    0.24974    0.12333    1.000
    H51      H        0.36330    0.23860    0.16420    1.000
    P58      P        0.31267    0.08288    0.93430    1.000
    H52      H        0.30170    0.11280    0.88230    1.000
    P59      P        0.23799    0.13604    0.10771    1.000
    H53      H        0.23950    0.19840    0.13550    1.000
    P60      P        0.08055    0.01624    0.06331    1.000
    H54      H        0.02220    0.04250    0.03650    1.000
    P61      P        0.11249    0.93777    0.24204    1.000
    H55      H        0.15240    0.88740    0.25270    1.000
    P62      P        0.92854    0.84227    0.07157    1.000
    H56      H        0.95660    0.85160    0.02090    1.000
    O145     O        0.60455    0.11236    0.26922    1.000
    O146     O        0.59491    0.18859    0.17760    1.000
    O147     O        0.63947    0.07176    0.16052    1.000
    O148     O        0.52648    0.02838    0.10793    1.000
    O149     O        0.47168    0.22252    0.15453    1.000
    O150     O        0.39043    0.21280    0.06320    1.000
    O151     O        0.53748    0.14698    0.06989    1.000
    O152     O        0.42807    0.08440    0.06540    1.000
    O153     O        0.30967    0.11592    0.09782    1.000
    O154     O        0.34553    0.13388    0.97632    1.000
    O155     O        0.35714    0.02571    0.91898    1.000
    O156     O        0.24695    0.05805    0.96009    1.000
    O157     O        0.19757    0.14201    0.04736    1.000
    O158     O        0.20865    0.09130    0.15724    1.000
    O159     O        0.13441    0.03010    0.01515    1.000
    O160     O        0.08481    0.05799    0.12282    1.000
    O161     O        0.15474    0.99096    0.21185    1.000
    O162     O        0.08364    0.95604    0.30594    1.000
    O163     O        0.07713    0.94315    0.07591    1.000
    O164     O        0.05743    0.91232    0.19956    1.000
    O165     O        0.41118    0.32257    0.11014    1.000
    O166     O        0.96861    0.88131    0.11815    1.000
    O167     O        0.85772    0.86865    0.06605    1.000
    O168     O        0.92842    0.76907    0.08221    1.000
    P63      P        0.90950    0.83790    0.10310    1.000
    Be43     Be       0.90180    0.99290    0.63710    1.000
    Be44     Be       0.95690    0.79360    0.62110    1.000
    Be45     Be       0.13070    0.86280    0.55020    1.000
    Be46     Be       0.31980    0.90950    0.48990    1.000
    Be47     Be       0.36120    0.93900    0.67940    1.000
    Be48     Be       0.45030    0.11080    0.62630    1.000
    P64      P        0.86714    0.86973    0.70394    1.000
    H57      H        0.80590    0.84570    0.71370    1.000
    P65      P        0.99661    0.91899    0.56226    1.000
    H58      H        0.98080    0.93170    0.49450    1.000
    P66      P        0.09062    0.75026    0.62333    1.000
    H59      H        0.13670    0.76140    0.66420    1.000
    P67      P        0.18733    0.91712    0.43430    1.000
    H60      H        0.19830    0.88720    0.38230    1.000
    P68      P        0.26201    0.86396    0.60771    1.000
    H61      H        0.26050    0.80160    0.63550    1.000
    P69      P        0.41945    0.98376    0.56331    1.000
    H62      H        0.47780    0.95750    0.53650    1.000
    P70      P        0.38751    0.06223    0.74204    1.000
    H63      H        0.34760    0.11260    0.75270    1.000
    P71      P        0.57146    0.15773    0.57157    1.000
    H64      H        0.54340    0.14840    0.52090    1.000
    O169     O        0.89545    0.88764    0.76922    1.000
    O170     O        0.90509    0.81141    0.67760    1.000
    O171     O        0.86053    0.92824    0.66052    1.000
    O172     O        0.97352    0.97162    0.60793    1.000
    O173     O        0.02832    0.77748    0.65453    1.000
    O174     O        0.10957    0.78720    0.56320    1.000
    O175     O        0.96252    0.85302    0.56989    1.000
    O176     O        0.07193    0.91560    0.56540    1.000
    O177     O        0.19033    0.88408    0.59782    1.000
    O178     O        0.15447    0.86612    0.47632    1.000
    O179     O        0.14286    0.97429    0.41898    1.000
    O180     O        0.25305    0.94195    0.46009    1.000
    O181     O        0.30243    0.85799    0.54736    1.000
    O182     O        0.29135    0.90870    0.65724    1.000
    O183     O        0.36559    0.96990    0.51515    1.000
    O184     O        0.41519    0.94201    0.62282    1.000
    O185     O        0.34526    0.00904    0.71185    1.000
    O186     O        0.41636    0.04396    0.80594    1.000
    O187     O        0.42287    0.05685    0.57591    1.000
    O188     O        0.44257    0.08768    0.69956    1.000
    O189     O        0.08882    0.67743    0.61014    1.000
    O190     O        0.53139    0.11869    0.61815    1.000
    O191     O        0.64228    0.13135    0.56605    1.000
    O192     O        0.57158    0.23093    0.58221    1.000
    P72      P        0.59050    0.16210    0.60310    1.000
