# CIF file generated by openbabel 3.1.0, see https://openbabel.org
data_I
_chemical_name_common 'image0'
_cell_length_a 24.97
_cell_length_b 19.252
_cell_length_c 15.913
_cell_angle_alpha 90
_cell_angle_beta 129.46
_cell_angle_gamma 90
_space_group_name_H-M_alt 'P 1'
_space_group_name_Hall 'P 1'
loop_
    _symmetry_equiv_pos_as_xyz
    x,y,z
loop_
    _atom_site_label
    _atom_site_type_symbol
    _atom_site_fract_x
    _atom_site_fract_y
    _atom_site_fract_z
    _atom_site_occupancy
    N1       N        0.45410    0.06340    0.26060    1.000
    N2       N        0.04590    0.93630    0.85350    1.000
    O1       O        0.34570    0.99050    0.41650    1.000
    O2       O        0.29410    0.06470    0.28180    1.000
    C1       C        0.34490    0.02930    0.35280    1.000
    C2       C        0.41040    0.02860    0.36440    1.000
    C3       C        0.39350    0.06620    0.26500    1.000
    C4       C        0.46990    0.98970    0.25030    1.000
    C5       C        0.42980    0.10230    0.16120    1.000
    C6       C        0.51810    0.09480    0.35730    1.000
    O3       O        0.15310    0.01090    0.22490    1.000
    O4       O        0.20510    0.93670    0.19310    1.000
    C7       C        0.15510    0.97270    0.16340    1.000
    C8       C        0.09120    0.97120    0.04490    1.000
    C9       C        0.10550    0.93470    0.97690    1.000
    C10      C        0.03070    0.00920    0.80960    1.000
    C11      C        0.07030    0.89740    0.80310    1.000
    C12      C        0.98130    0.90370    0.82120    1.000
    O5       O        0.23950    0.09620    0.41890    1.000
    O6       O        0.31470    0.04590    0.57620    1.000
    C13      C        0.27660    0.09580    0.51860    1.000
    C14      C        0.27900    0.15860    0.57740    1.000
    C15      C        0.31590    0.14540    0.69650    1.000
    N3       N        0.31270    0.20340    0.75520    1.000
    C16      C        0.24020    0.22060    0.70980    1.000
    C17      C        0.23960    0.28070    0.77220    1.000
    C18      C        0.34520    0.26710    0.75560    1.000
    C19      C        0.35240    0.31970    0.83480    1.000
    C20      C        0.35280    0.17900    0.87120    1.000
    C21      C        0.34530    0.22940    0.93540    1.000
    N4       N        0.31400    0.29700    0.87200    1.000
    C22      C        0.31700    0.35590    0.93820    1.000
    C23      C        0.27960    0.34020    0.98260    1.000
    C24      C        0.27900    0.40460    0.03740    1.000
    O7       O        0.24060    0.40400    0.06290    1.000
    O8       O        0.31400    0.45500    0.05270    1.000
    Zn1      Zn       0.24890    0.00040    0.37390    1.000
    H1       H        0.44680    0.05300    0.42940    1.000
    H2       H        0.42510    0.98190    0.36760    1.000
    H3       H        0.35290    0.04520    0.20060    1.000
    H4       H        0.38440    0.11420    0.26770    1.000
    H5       H        0.42950    0.96930    0.18480    1.000
    H6       H        0.48210    0.96270    0.31090    1.000
    H7       H        0.42480    0.15030    0.17140    1.000
    H8       H        0.38560    0.08510    0.09880    1.000
    H9       H        0.53730    0.06760    0.42130    1.000
    H10      H        0.50630    0.13970    0.36750    1.000
    H11      H        0.07640    0.01780    0.01810    1.000
    H12      H        0.05480    0.94680    0.03730    1.000
    H13      H        0.14530    0.95650    0.99190    1.000
    H14      H        0.11610    0.88710    0.00010    1.000
    H15      H        0.07110    0.02870    0.82370    1.000
    H16      H        0.01950    0.03660    0.84690    1.000
    H17      H        0.07630    0.84950    0.82410    1.000
    H18      H        0.11450    0.91560    0.83010    1.000
    H19      H        0.96220    0.93140    0.84670    1.000
    H20      H        0.99210    0.85850    0.85400    1.000
    H21      H        0.30290    0.19510    0.57190    1.000
    H22      H        0.23240    0.17320    0.54300    1.000
    H23      H        0.36360    0.13560    0.73140    1.000
    H24      H        0.29490    0.10510    0.70060    1.000
    H25      H        0.21530    0.23570    0.63600    1.000
    H26      H        0.21800    0.18030    0.71070    1.000
    H27      H        0.21450    0.26590    0.79610    1.000
    H28      H        0.21800    0.32140    0.72760    1.000
    H29      H        0.38990    0.25690    0.77670    1.000
    H30      H        0.31580    0.28640    0.68360    1.000
    H31      H        0.33560    0.36430    0.80050    1.000
    H32      H        0.40050    0.32340    0.89790    1.000
    H33      H        0.33560    0.13440    0.87150    1.000
    H34      H        0.40100    0.17520    0.90500    1.000
    H35      H        0.38990    0.24020    0.00330    1.000
    H36      H        0.31620    0.20970    0.94930    1.000
    H37      H        0.36490    0.36530    0.99800    1.000
    H38      H        0.29610    0.39640    0.89270    1.000
    H39      H        0.23290    0.32610    0.92410    1.000
    H40      H        0.30350    0.30330    0.03480    1.000
    N5       N        0.95410    0.56340    0.26060    1.000
    N6       N        0.54590    0.43630    0.85350    1.000
    O9       O        0.84570    0.49050    0.41650    1.000
    O10      O        0.79410    0.56470    0.28180    1.000
    C25      C        0.84490    0.52930    0.35280    1.000
    C26      C        0.91040    0.52860    0.36440    1.000
    C27      C        0.89350    0.56620    0.26500    1.000
    C28      C        0.96990    0.48970    0.25030    1.000
    C29      C        0.92980    0.60230    0.16120    1.000
    C30      C        0.01810    0.59480    0.35730    1.000
    O11      O        0.65310    0.51090    0.22490    1.000
    O12      O        0.70510    0.43670    0.19310    1.000
    C31      C        0.65510    0.47270    0.16340    1.000
    C32      C        0.59120    0.47120    0.04490    1.000
    C33      C        0.60550    0.43470    0.97690    1.000
    C34      C        0.53070    0.50920    0.80960    1.000
    C35      C        0.57030    0.39740    0.80310    1.000
    C36      C        0.48130    0.40370    0.82120    1.000
    O13      O        0.73950    0.59620    0.41890    1.000
    O14      O        0.81470    0.54590    0.57620    1.000
    C37      C        0.77660    0.59580    0.51860    1.000
    C38      C        0.77900    0.65860    0.57740    1.000
    C39      C        0.81590    0.64540    0.69650    1.000
    N7       N        0.81270    0.70340    0.75520    1.000
    C40      C        0.74020    0.72060    0.70980    1.000
    C41      C        0.73960    0.78070    0.77220    1.000
    C42      C        0.84520    0.76710    0.75560    1.000
    C43      C        0.85240    0.81970    0.83480    1.000
    C44      C        0.85280    0.67900    0.87120    1.000
    C45      C        0.84530    0.72940    0.93540    1.000
    N8       N        0.81400    0.79700    0.87200    1.000
    C46      C        0.81700    0.85590    0.93820    1.000
    C47      C        0.77960    0.84020    0.98260    1.000
    C48      C        0.77900    0.90460    0.03740    1.000
    O15      O        0.74060    0.90400    0.06290    1.000
    O16      O        0.81400    0.95500    0.05270    1.000
    Zn2      Zn       0.74890    0.50040    0.37390    1.000
    H41      H        0.94680    0.55300    0.42940    1.000
    H42      H        0.92510    0.48190    0.36760    1.000
    H43      H        0.85290    0.54520    0.20060    1.000
    H44      H        0.88440    0.61420    0.26770    1.000
    H45      H        0.92950    0.46930    0.18480    1.000
    H46      H        0.98210    0.46270    0.31090    1.000
    H47      H        0.92480    0.65030    0.17140    1.000
    H48      H        0.88560    0.58510    0.09880    1.000
    H49      H        0.03730    0.56760    0.42130    1.000
    H50      H        0.00630    0.63970    0.36750    1.000
    H51      H        0.57640    0.51780    0.01810    1.000
    H52      H        0.55480    0.44680    0.03730    1.000
    H53      H        0.64530    0.45650    0.99190    1.000
    H54      H        0.61610    0.38710    0.00010    1.000
    H55      H        0.57110    0.52870    0.82370    1.000
    H56      H        0.51950    0.53660    0.84690    1.000
    H57      H        0.57630    0.34950    0.82410    1.000
    H58      H        0.61450    0.41560    0.83010    1.000
    H59      H        0.46220    0.43140    0.84670    1.000
    H60      H        0.49210    0.35850    0.85400    1.000
    H61      H        0.80290    0.69510    0.57190    1.000
    H62      H        0.73240    0.67320    0.54300    1.000
    H63      H        0.86360    0.63560    0.73140    1.000
    H64      H        0.79490    0.60510    0.70060    1.000
    H65      H        0.71530    0.73570    0.63600    1.000
    H66      H        0.71800    0.68030    0.71070    1.000
    H67      H        0.71450    0.76590    0.79610    1.000
    H68      H        0.71800    0.82140    0.72760    1.000
    H69      H        0.88990    0.75690    0.77670    1.000
    H70      H        0.81580    0.78640    0.68360    1.000
    H71      H        0.83560    0.86430    0.80050    1.000
    H72      H        0.90050    0.82340    0.89790    1.000
    H73      H        0.83560    0.63440    0.87150    1.000
    H74      H        0.90100    0.67520    0.90500    1.000
    H75      H        0.88990    0.74020    0.00330    1.000
    H76      H        0.81620    0.70970    0.94930    1.000
    H77      H        0.86490    0.86530    0.99800    1.000
    H78      H        0.79610    0.89640    0.89270    1.000
    H79      H        0.73290    0.82610    0.92410    1.000
    H80      H        0.80350    0.80330    0.03480    1.000
    N9       N        0.54590    0.06340    0.23940    1.000
    N10      N        0.95410    0.93630    0.64650    1.000
    O17      O        0.65430    0.99050    0.08350    1.000
    O18      O        0.70590    0.06470    0.21820    1.000
    C49      C        0.65510    0.02930    0.14720    1.000
    C50      C        0.58960    0.02860    0.13560    1.000
    C51      C        0.60650    0.06620    0.23500    1.000
    C52      C        0.53010    0.98970    0.24970    1.000
    C53      C        0.57020    0.10230    0.33880    1.000
    C54      C        0.48190    0.09480    0.14270    1.000
    O19      O        0.84690    0.01090    0.27510    1.000
    O20      O        0.79490    0.93670    0.30690    1.000
    C55      C        0.84490    0.97270    0.33660    1.000
    C56      C        0.90880    0.97120    0.45510    1.000
    C57      C        0.89450    0.93470    0.52310    1.000
    C58      C        0.96930    0.00920    0.69040    1.000
    C59      C        0.92970    0.89740    0.69690    1.000
    C60      C        0.01870    0.90370    0.67880    1.000
    O21      O        0.76050    0.09620    0.08110    1.000
    O22      O        0.68530    0.04590    0.92380    1.000
    C61      C        0.72340    0.09580    0.98140    1.000
    C62      C        0.72100    0.15860    0.92260    1.000
    C63      C        0.68410    0.14540    0.80350    1.000
    N11      N        0.68730    0.20340    0.74480    1.000
    C64      C        0.75980    0.22060    0.79020    1.000
    C65      C        0.76040    0.28070    0.72780    1.000
    C66      C        0.65480    0.26710    0.74440    1.000
    C67      C        0.64760    0.31970    0.66520    1.000
    C68      C        0.64720    0.17900    0.62880    1.000
    C69      C        0.65470    0.22940    0.56460    1.000
    N12      N        0.68600    0.29700    0.62800    1.000
    C70      C        0.68300    0.35590    0.56180    1.000
    C71      C        0.72040    0.34020    0.51740    1.000
    C72      C        0.72100    0.40460    0.46260    1.000
    O23      O        0.75940    0.40400    0.43710    1.000
    O24      O        0.68600    0.45500    0.44730    1.000
    Zn3      Zn       0.75110    0.00040    0.12610    1.000
    H81      H        0.55320    0.05300    0.07060    1.000
    H82      H        0.57490    0.98190    0.13240    1.000
    H83      H        0.64710    0.04520    0.29940    1.000
    H84      H        0.61560    0.11420    0.23230    1.000
    H85      H        0.57050    0.96930    0.31520    1.000
    H86      H        0.51790    0.96270    0.18910    1.000
    H87      H        0.57520    0.15030    0.32860    1.000
    H88      H        0.61440    0.08510    0.40120    1.000
    H89      H        0.46270    0.06760    0.07870    1.000
    H90      H        0.49370    0.13970    0.13250    1.000
    H91      H        0.92360    0.01780    0.48190    1.000
    H92      H        0.94520    0.94680    0.46270    1.000
    H93      H        0.85470    0.95650    0.50810    1.000
    H94      H        0.88390    0.88710    0.49990    1.000
    H95      H        0.92890    0.02870    0.67630    1.000
    H96      H        0.98050    0.03660    0.65310    1.000
    H97      H        0.92370    0.84950    0.67590    1.000
    H98      H        0.88550    0.91560    0.66990    1.000
    H99      H        0.03780    0.93140    0.65330    1.000
    H100     H        0.00790    0.85850    0.64600    1.000
    H101     H        0.69710    0.19510    0.92810    1.000
    H102     H        0.76760    0.17320    0.95700    1.000
    H103     H        0.63640    0.13560    0.76860    1.000
    H104     H        0.70510    0.10510    0.79940    1.000
    H105     H        0.78470    0.23570    0.86400    1.000
    H106     H        0.78200    0.18030    0.78930    1.000
    H107     H        0.78550    0.26590    0.70390    1.000
    H108     H        0.78200    0.32140    0.77240    1.000
    H109     H        0.61010    0.25690    0.72330    1.000
    H110     H        0.68420    0.28640    0.81640    1.000
    H111     H        0.66440    0.36430    0.69950    1.000
    H112     H        0.59950    0.32340    0.60210    1.000
    H113     H        0.66440    0.13440    0.62850    1.000
    H114     H        0.59900    0.17520    0.59500    1.000
    H115     H        0.61010    0.24020    0.49670    1.000
    H116     H        0.68380    0.20970    0.55070    1.000
    H117     H        0.63510    0.36530    0.50200    1.000
    H118     H        0.70390    0.39640    0.60730    1.000
    H119     H        0.76710    0.32610    0.57590    1.000
    H120     H        0.69650    0.30330    0.46520    1.000
    N13      N        0.04590    0.56340    0.23940    1.000
    N14      N        0.45410    0.43630    0.64650    1.000
    O25      O        0.15430    0.49050    0.08350    1.000
    O26      O        0.20590    0.56470    0.21820    1.000
    C73      C        0.15510    0.52930    0.14720    1.000
    C74      C        0.08960    0.52860    0.13560    1.000
    C75      C        0.10650    0.56620    0.23500    1.000
    C76      C        0.03010    0.48970    0.24970    1.000
    C77      C        0.07020    0.60230    0.33880    1.000
    C78      C        0.98190    0.59480    0.14270    1.000
    O27      O        0.34690    0.51090    0.27510    1.000
    O28      O        0.29490    0.43670    0.30690    1.000
    C79      C        0.34490    0.47270    0.33660    1.000
    C80      C        0.40880    0.47120    0.45510    1.000
    C81      C        0.39450    0.43470    0.52310    1.000
    C82      C        0.46930    0.50920    0.69040    1.000
    C83      C        0.42970    0.39740    0.69690    1.000
    C84      C        0.51870    0.40370    0.67880    1.000
    O29      O        0.26050    0.59620    0.08110    1.000
    O30      O        0.18530    0.54590    0.92380    1.000
    C85      C        0.22340    0.59580    0.98140    1.000
    C86      C        0.22100    0.65860    0.92260    1.000
    C87      C        0.18410    0.64540    0.80350    1.000
    N15      N        0.18730    0.70340    0.74480    1.000
    C88      C        0.25980    0.72060    0.79020    1.000
    C89      C        0.26040    0.78070    0.72780    1.000
    C90      C        0.15480    0.76710    0.74440    1.000
    C91      C        0.14760    0.81970    0.66520    1.000
    C92      C        0.14720    0.67900    0.62880    1.000
    C93      C        0.15470    0.72940    0.56460    1.000
    N16      N        0.18600    0.79700    0.62800    1.000
    C94      C        0.18300    0.85590    0.56180    1.000
    C95      C        0.22040    0.84020    0.51740    1.000
    C96      C        0.22100    0.90460    0.46260    1.000
    O31      O        0.25940    0.90400    0.43710    1.000
    O32      O        0.18600    0.95500    0.44730    1.000
    Zn4      Zn       0.25110    0.50040    0.12610    1.000
    H121     H        0.05320    0.55300    0.07060    1.000
    H122     H        0.07490    0.48190    0.13240    1.000
    H123     H        0.14710    0.54520    0.29940    1.000
    H124     H        0.11560    0.61420    0.23230    1.000
    H125     H        0.07050    0.46930    0.31520    1.000
    H126     H        0.01790    0.46270    0.18910    1.000
    H127     H        0.07520    0.65030    0.32860    1.000
    H128     H        0.11440    0.58510    0.40120    1.000
    H129     H        0.96270    0.56760    0.07870    1.000
    H130     H        0.99370    0.63970    0.13250    1.000
    H131     H        0.42360    0.51780    0.48190    1.000
    H132     H        0.44520    0.44680    0.46270    1.000
    H133     H        0.35470    0.45650    0.50810    1.000
    H134     H        0.38390    0.38710    0.49990    1.000
    H135     H        0.42890    0.52870    0.67630    1.000
    H136     H        0.48050    0.53660    0.65310    1.000
    H137     H        0.42370    0.34950    0.67590    1.000
    H138     H        0.38550    0.41560    0.66990    1.000
    H139     H        0.53780    0.43140    0.65330    1.000
    H140     H        0.50790    0.35850    0.64600    1.000
    H141     H        0.19710    0.69510    0.92810    1.000
    H142     H        0.26760    0.67320    0.95700    1.000
    H143     H        0.13640    0.63560    0.76860    1.000
    H144     H        0.20510    0.60510    0.79940    1.000
    H145     H        0.28470    0.73570    0.86400    1.000
    H146     H        0.28200    0.68030    0.78930    1.000
    H147     H        0.28550    0.76590    0.70390    1.000
    H148     H        0.28200    0.82140    0.77240    1.000
    H149     H        0.11010    0.75690    0.72330    1.000
    H150     H        0.18420    0.78640    0.81640    1.000
    H151     H        0.16440    0.86430    0.69950    1.000
    H152     H        0.09950    0.82340    0.60210    1.000
    H153     H        0.16440    0.63440    0.62850    1.000
    H154     H        0.09900    0.67520    0.59500    1.000
    H155     H        0.11010    0.74020    0.49670    1.000
    H156     H        0.18380    0.70970    0.55070    1.000
    H157     H        0.13510    0.86530    0.50200    1.000
    H158     H        0.20390    0.89640    0.60730    1.000
    H159     H        0.26710    0.82610    0.57590    1.000
    H160     H        0.19650    0.80330    0.46520    1.000
    N17      N        0.54590    0.93660    0.73940    1.000
    N18      N        0.95410    0.06370    0.14650    1.000
    O33      O        0.65430    0.00950    0.58350    1.000
    O34      O        0.70590    0.93530    0.71820    1.000
    C97      C        0.65510    0.97070    0.64720    1.000
    C98      C        0.58960    0.97140    0.63560    1.000
    C99      C        0.60650    0.93380    0.73500    1.000
    C100     C        0.53010    0.01030    0.74970    1.000
    C101     C        0.57020    0.89770    0.83880    1.000
    C102     C        0.48190    0.90520    0.64270    1.000
    O35      O        0.84690    0.98910    0.77510    1.000
    O36      O        0.79490    0.06330    0.80690    1.000
    C103     C        0.84490    0.02730    0.83660    1.000
    C104     C        0.90880    0.02880    0.95510    1.000
    C105     C        0.89450    0.06530    0.02310    1.000
    C106     C        0.96930    0.99080    0.19040    1.000
    C107     C        0.92970    0.10260    0.19690    1.000
    C108     C        0.01870    0.09630    0.17880    1.000
    O37      O        0.76050    0.90380    0.58110    1.000
    O38      O        0.68530    0.95410    0.42380    1.000
    C109     C        0.72340    0.90420    0.48140    1.000
    C110     C        0.72100    0.84140    0.42260    1.000
    C111     C        0.68410    0.85460    0.30350    1.000
    N19      N        0.68730    0.79660    0.24480    1.000
    C112     C        0.75980    0.77940    0.29020    1.000
    C113     C        0.76040    0.71930    0.22780    1.000
    C114     C        0.65480    0.73290    0.24440    1.000
    C115     C        0.64760    0.68030    0.16520    1.000
    C116     C        0.64720    0.82100    0.12880    1.000
    C117     C        0.65470    0.77060    0.06460    1.000
    N20      N        0.68600    0.70300    0.12800    1.000
    C118     C        0.68300    0.64410    0.06180    1.000
    C119     C        0.72040    0.65980    0.01740    1.000
    C120     C        0.72100    0.59540    0.96260    1.000
    O39      O        0.75940    0.59600    0.93710    1.000
    O40      O        0.68600    0.54500    0.94730    1.000
    Zn5      Zn       0.75110    0.99960    0.62610    1.000
    H161     H        0.55320    0.94700    0.57060    1.000
    H162     H        0.57490    0.01810    0.63240    1.000
    H163     H        0.64710    0.95480    0.79940    1.000
    H164     H        0.61560    0.88580    0.73230    1.000
    H165     H        0.57050    0.03070    0.81520    1.000
    H166     H        0.51790    0.03730    0.68910    1.000
    H167     H        0.57520    0.84970    0.82860    1.000
    H168     H        0.61440    0.91490    0.90120    1.000
    H169     H        0.46270    0.93240    0.57870    1.000
    H170     H        0.49370    0.86030    0.63250    1.000
    H171     H        0.92360    0.98220    0.98190    1.000
    H172     H        0.94520    0.05320    0.96270    1.000
    H173     H        0.85470    0.04350    0.00810    1.000
    H174     H        0.88390    0.11290    0.99990    1.000
    H175     H        0.92890    0.97130    0.17630    1.000
    H176     H        0.98050    0.96340    0.15310    1.000
    H177     H        0.92370    0.15050    0.17590    1.000
    H178     H        0.88550    0.08440    0.16990    1.000
    H179     H        0.03780    0.06860    0.15330    1.000
    H180     H        0.00790    0.14150    0.14600    1.000
    H181     H        0.69710    0.80490    0.42810    1.000
    H182     H        0.76760    0.82680    0.45700    1.000
    H183     H        0.63640    0.86440    0.26860    1.000
    H184     H        0.70510    0.89490    0.29940    1.000
    H185     H        0.78470    0.76430    0.36400    1.000
    H186     H        0.78200    0.81970    0.28930    1.000
    H187     H        0.78550    0.73410    0.20390    1.000
    H188     H        0.78200    0.67860    0.27240    1.000
    H189     H        0.61010    0.74310    0.22330    1.000
    H190     H        0.68420    0.71360    0.31640    1.000
    H191     H        0.66440    0.63570    0.19950    1.000
    H192     H        0.59950    0.67660    0.10210    1.000
    H193     H        0.66440    0.86560    0.12850    1.000
    H194     H        0.59900    0.82480    0.09500    1.000
    H195     H        0.61010    0.75980    0.99670    1.000
    H196     H        0.68380    0.79030    0.05070    1.000
    H197     H        0.63510    0.63470    0.00200    1.000
    H198     H        0.70390    0.60360    0.10730    1.000
    H199     H        0.76710    0.67390    0.07590    1.000
    H200     H        0.69650    0.69670    0.96520    1.000
    N21      N        0.04590    0.43660    0.73940    1.000
    N22      N        0.45410    0.56370    0.14650    1.000
    O41      O        0.15430    0.50950    0.58350    1.000
    O42      O        0.20590    0.43530    0.71820    1.000
    C121     C        0.15510    0.47070    0.64720    1.000
    C122     C        0.08960    0.47140    0.63560    1.000
    C123     C        0.10650    0.43380    0.73500    1.000
    C124     C        0.03010    0.51030    0.74970    1.000
    C125     C        0.07020    0.39770    0.83880    1.000
    C126     C        0.98190    0.40520    0.64270    1.000
    O43      O        0.34690    0.48910    0.77510    1.000
    O44      O        0.29490    0.56330    0.80690    1.000
    C127     C        0.34490    0.52730    0.83660    1.000
    C128     C        0.40880    0.52880    0.95510    1.000
    C129     C        0.39450    0.56530    0.02310    1.000
    C130     C        0.46930    0.49080    0.19040    1.000
    C131     C        0.42970    0.60260    0.19690    1.000
    C132     C        0.51870    0.59630    0.17880    1.000
    O45      O        0.26050    0.40380    0.58110    1.000
    O46      O        0.18530    0.45410    0.42380    1.000
    C133     C        0.22340    0.40420    0.48140    1.000
    C134     C        0.22100    0.34140    0.42260    1.000
    C135     C        0.18410    0.35460    0.30350    1.000
    N23      N        0.18730    0.29660    0.24480    1.000
    C136     C        0.25980    0.27940    0.29020    1.000
    C137     C        0.26040    0.21930    0.22780    1.000
    C138     C        0.15480    0.23290    0.24440    1.000
    C139     C        0.14760    0.18030    0.16520    1.000
    C140     C        0.14720    0.32100    0.12880    1.000
    C141     C        0.15470    0.27060    0.06460    1.000
    N24      N        0.18600    0.20300    0.12800    1.000
    C142     C        0.18300    0.14410    0.06180    1.000
    C143     C        0.22040    0.15980    0.01740    1.000
    C144     C        0.22100    0.09540    0.96260    1.000
    O47      O        0.25940    0.09600    0.93710    1.000
    O48      O        0.18600    0.04500    0.94730    1.000
    Zn6      Zn       0.25110    0.49960    0.62610    1.000
    H201     H        0.05320    0.44700    0.57060    1.000
    H202     H        0.07490    0.51810    0.63240    1.000
    H203     H        0.14710    0.45480    0.79940    1.000
    H204     H        0.11560    0.38580    0.73230    1.000
    H205     H        0.07050    0.53070    0.81520    1.000
    H206     H        0.01790    0.53730    0.68910    1.000
    H207     H        0.07520    0.34970    0.82860    1.000
    H208     H        0.11440    0.41490    0.90120    1.000
    H209     H        0.96270    0.43240    0.57870    1.000
    H210     H        0.99370    0.36030    0.63250    1.000
    H211     H        0.42360    0.48220    0.98190    1.000
    H212     H        0.44520    0.55320    0.96270    1.000
    H213     H        0.35470    0.54350    0.00810    1.000
    H214     H        0.38390    0.61290    0.99990    1.000
    H215     H        0.42890    0.47130    0.17630    1.000
    H216     H        0.48050    0.46340    0.15310    1.000
    H217     H        0.42370    0.65050    0.17590    1.000
    H218     H        0.38550    0.58440    0.16990    1.000
    H219     H        0.53780    0.56860    0.15330    1.000
    H220     H        0.50790    0.64150    0.14600    1.000
    H221     H        0.19710    0.30490    0.42810    1.000
    H222     H        0.26760    0.32680    0.45700    1.000
    H223     H        0.13640    0.36440    0.26860    1.000
    H224     H        0.20510    0.39490    0.29940    1.000
    H225     H        0.28470    0.26430    0.36400    1.000
    H226     H        0.28200    0.31970    0.28930    1.000
    H227     H        0.28550    0.23410    0.20390    1.000
    H228     H        0.28200    0.17860    0.27240    1.000
    H229     H        0.11010    0.24310    0.22330    1.000
    H230     H        0.18420    0.21360    0.31640    1.000
    H231     H        0.16440    0.13570    0.19950    1.000
    H232     H        0.09950    0.17660    0.10210    1.000
    H233     H        0.16440    0.36560    0.12850    1.000
    H234     H        0.09900    0.32480    0.09500    1.000
    H235     H        0.11010    0.25980    0.99670    1.000
    H236     H        0.18380    0.29030    0.05070    1.000
    H237     H        0.13510    0.13470    0.00200    1.000
    H238     H        0.20390    0.10360    0.10730    1.000
    H239     H        0.26710    0.17390    0.07590    1.000
    H240     H        0.19650    0.19670    0.96520    1.000
    N25      N        0.45410    0.93660    0.76060    1.000
    N26      N        0.04590    0.06370    0.35350    1.000
    O49      O        0.34570    0.00950    0.91650    1.000
    O50      O        0.29410    0.93530    0.78180    1.000
    C145     C        0.34490    0.97070    0.85280    1.000
    C146     C        0.41040    0.97140    0.86440    1.000
    C147     C        0.39350    0.93380    0.76500    1.000
    C148     C        0.46990    0.01030    0.75030    1.000
    C149     C        0.42980    0.89770    0.66120    1.000
    C150     C        0.51810    0.90520    0.85730    1.000
    O51      O        0.15310    0.98910    0.72490    1.000
    O52      O        0.20510    0.06330    0.69310    1.000
    C151     C        0.15510    0.02730    0.66340    1.000
    C152     C        0.09120    0.02880    0.54490    1.000
    C153     C        0.10550    0.06530    0.47690    1.000
    C154     C        0.03070    0.99080    0.30960    1.000
    C155     C        0.07030    0.10260    0.30310    1.000
    C156     C        0.98130    0.09630    0.32120    1.000
    O53      O        0.23950    0.90380    0.91890    1.000
    O54      O        0.31470    0.95410    0.07620    1.000
    C157     C        0.27660    0.90420    0.01860    1.000
    C158     C        0.27900    0.84140    0.07740    1.000
    C159     C        0.31590    0.85460    0.19650    1.000
    N27      N        0.31270    0.79660    0.25520    1.000
    C160     C        0.24020    0.77940    0.20980    1.000
    C161     C        0.23960    0.71930    0.27220    1.000
    C162     C        0.34520    0.73290    0.25560    1.000
    C163     C        0.35240    0.68030    0.33480    1.000
    C164     C        0.35280    0.82100    0.37120    1.000
    C165     C        0.34530    0.77060    0.43540    1.000
    N28      N        0.31400    0.70300    0.37200    1.000
    C166     C        0.31700    0.64410    0.43820    1.000
    C167     C        0.27960    0.65980    0.48260    1.000
    C168     C        0.27900    0.59540    0.53740    1.000
    O55      O        0.24060    0.59600    0.56290    1.000
    O56      O        0.31400    0.54500    0.55270    1.000
    Zn7      Zn       0.24890    0.99960    0.87390    1.000
    H241     H        0.44680    0.94700    0.92940    1.000
    H242     H        0.42510    0.01810    0.86760    1.000
    H243     H        0.35290    0.95480    0.70060    1.000
    H244     H        0.38440    0.88580    0.76770    1.000
    H245     H        0.42950    0.03070    0.68480    1.000
    H246     H        0.48210    0.03730    0.81090    1.000
    H247     H        0.42480    0.84970    0.67140    1.000
    H248     H        0.38560    0.91490    0.59880    1.000
    H249     H        0.53730    0.93240    0.92130    1.000
    H250     H        0.50630    0.86030    0.86750    1.000
    H251     H        0.07640    0.98220    0.51810    1.000
    H252     H        0.05480    0.05320    0.53730    1.000
    H253     H        0.14530    0.04350    0.49190    1.000
    H254     H        0.11610    0.11290    0.50010    1.000
    H255     H        0.07110    0.97130    0.32370    1.000
    H256     H        0.01950    0.96340    0.34690    1.000
    H257     H        0.07630    0.15050    0.32410    1.000
    H258     H        0.11450    0.08440    0.33010    1.000
    H259     H        0.96220    0.06860    0.34670    1.000
    H260     H        0.99210    0.14150    0.35400    1.000
    H261     H        0.30290    0.80490    0.07190    1.000
    H262     H        0.23240    0.82680    0.04300    1.000
    H263     H        0.36360    0.86440    0.23140    1.000
    H264     H        0.29490    0.89490    0.20060    1.000
    H265     H        0.21530    0.76430    0.13600    1.000
    H266     H        0.21800    0.81970    0.21070    1.000
    H267     H        0.21450    0.73410    0.29610    1.000
    H268     H        0.21800    0.67860    0.22760    1.000
    H269     H        0.38990    0.74310    0.27670    1.000
    H270     H        0.31580    0.71360    0.18360    1.000
    H271     H        0.33560    0.63570    0.30050    1.000
    H272     H        0.40050    0.67660    0.39790    1.000
    H273     H        0.33560    0.86560    0.37150    1.000
    H274     H        0.40100    0.82480    0.40500    1.000
    H275     H        0.38990    0.75980    0.50330    1.000
    H276     H        0.31620    0.79030    0.44930    1.000
    H277     H        0.36490    0.63470    0.49800    1.000
    H278     H        0.29610    0.60360    0.39270    1.000
    H279     H        0.23290    0.67390    0.42410    1.000
    H280     H        0.30350    0.69670    0.53480    1.000
    N29      N        0.95410    0.43660    0.76060    1.000
    N30      N        0.54590    0.56370    0.35350    1.000
    O57      O        0.84570    0.50950    0.91650    1.000
    O58      O        0.79410    0.43530    0.78180    1.000
    C169     C        0.84490    0.47070    0.85280    1.000
    C170     C        0.91040    0.47140    0.86440    1.000
    C171     C        0.89350    0.43380    0.76500    1.000
    C172     C        0.96990    0.51030    0.75030    1.000
    C173     C        0.92980    0.39770    0.66120    1.000
    C174     C        0.01810    0.40520    0.85730    1.000
    O59      O        0.65310    0.48910    0.72490    1.000
    O60      O        0.70510    0.56330    0.69310    1.000
    C175     C        0.65510    0.52730    0.66340    1.000
    C176     C        0.59120    0.52880    0.54490    1.000
    C177     C        0.60550    0.56530    0.47690    1.000
    C178     C        0.53070    0.49080    0.30960    1.000
    C179     C        0.57030    0.60260    0.30310    1.000
    C180     C        0.48130    0.59630    0.32120    1.000
    O61      O        0.73950    0.40380    0.91890    1.000
    O62      O        0.81470    0.45410    0.07620    1.000
    C181     C        0.77660    0.40420    0.01860    1.000
    C182     C        0.77900    0.34140    0.07740    1.000
    C183     C        0.81590    0.35460    0.19650    1.000
    N31      N        0.81270    0.29660    0.25520    1.000
    C184     C        0.74020    0.27940    0.20980    1.000
    C185     C        0.73960    0.21930    0.27220    1.000
    C186     C        0.84520    0.23290    0.25560    1.000
    C187     C        0.85240    0.18030    0.33480    1.000
    C188     C        0.85280    0.32100    0.37120    1.000
    C189     C        0.84530    0.27060    0.43540    1.000
    N32      N        0.81400    0.20300    0.37200    1.000
    C190     C        0.81700    0.14410    0.43820    1.000
    C191     C        0.77960    0.15980    0.48260    1.000
    C192     C        0.77900    0.09540    0.53740    1.000
    O63      O        0.74060    0.09600    0.56290    1.000
    O64      O        0.81400    0.04500    0.55270    1.000
    Zn8      Zn       0.74890    0.49960    0.87390    1.000
    H281     H        0.94680    0.44700    0.92940    1.000
    H282     H        0.92510    0.51810    0.86760    1.000
    H283     H        0.85290    0.45480    0.70060    1.000
    H284     H        0.88440    0.38580    0.76770    1.000
    H285     H        0.92950    0.53070    0.68480    1.000
    H286     H        0.98210    0.53730    0.81090    1.000
    H287     H        0.92480    0.34970    0.67140    1.000
    H288     H        0.88560    0.41490    0.59880    1.000
    H289     H        0.03730    0.43240    0.92130    1.000
    H290     H        0.00630    0.36030    0.86750    1.000
    H291     H        0.57640    0.48220    0.51810    1.000
    H292     H        0.55480    0.55320    0.53730    1.000
    H293     H        0.64530    0.54350    0.49190    1.000
    H294     H        0.61610    0.61290    0.50010    1.000
    H295     H        0.57110    0.47130    0.32370    1.000
    H296     H        0.51950    0.46340    0.34690    1.000
    H297     H        0.57630    0.65050    0.32410    1.000
    H298     H        0.61450    0.58440    0.33010    1.000
    H299     H        0.46220    0.56860    0.34670    1.000
    H300     H        0.49210    0.64150    0.35400    1.000
    H301     H        0.80290    0.30490    0.07190    1.000
    H302     H        0.73240    0.32680    0.04300    1.000
    H303     H        0.86360    0.36440    0.23140    1.000
    H304     H        0.79490    0.39490    0.20060    1.000
    H305     H        0.71530    0.26430    0.13600    1.000
    H306     H        0.71800    0.31970    0.21070    1.000
    H307     H        0.71450    0.23410    0.29610    1.000
    H308     H        0.71800    0.17860    0.22760    1.000
    H309     H        0.88990    0.24310    0.27670    1.000
    H310     H        0.81580    0.21360    0.18360    1.000
    H311     H        0.83560    0.13570    0.30050    1.000
    H312     H        0.90050    0.17660    0.39790    1.000
    H313     H        0.83560    0.36560    0.37150    1.000
    H314     H        0.90100    0.32480    0.40500    1.000
    H315     H        0.88990    0.25980    0.50330    1.000
    H316     H        0.81620    0.29030    0.44930    1.000
    H317     H        0.86490    0.13470    0.49800    1.000
    H318     H        0.79610    0.10360    0.39270    1.000
    H319     H        0.73290    0.17390    0.42410    1.000
    H320     H        0.80350    0.19670    0.53480    1.000
