# CIF file generated by openbabel 3.1.0, see https://openbabel.org
data_I
_chemical_name_common 'LUWYUY_clean'
_cell_length_a 11.7368
_cell_length_b 11.7368
_cell_length_c 15.462
_cell_angle_alpha 82.0011
_cell_angle_beta 82.0011
_cell_angle_gamma 76.6906
_space_group_name_H-M_alt 'P 1'
_space_group_name_Hall 'P 1'
loop_
    _symmetry_equiv_pos_as_xyz
    x,y,z
loop_
    _atom_site_label
    _atom_site_type_symbol
    _atom_site_fract_x
    _atom_site_fract_y
    _atom_site_fract_z
    _atom_site_occupancy
    Cd1      Cd       0.97196    0.46423    0.12845    1.000
    Cd2      Cd       0.53577    0.02804    0.37155    1.000
    H1       H        0.88490    0.40470    0.45360    1.000
    H2       H        0.76740    0.36260    0.58120    1.000
    H3       H        0.57730    0.34290    0.57660    1.000
    H4       H        0.61550    0.42290    0.31540    1.000
    H5       H        0.31520    0.34600    0.49560    1.000
    H6       H        0.39590    0.38310    0.55450    1.000
    H7       H        0.81780    0.28320    0.11610    1.000
    H8       H        0.81050    0.09030    0.12450    1.000
    H9       H        0.80950    0.91830    0.10910    1.000
    H10      H        0.81020    0.72280    0.11590    1.000
    H11      H        0.13340    0.63520    0.16610    1.000
    H12      H        0.14360    0.82780    0.16060    1.000
    H13      H        0.15360    0.00840    0.13100    1.000
    H14      H        0.15040    0.20380    0.12490    1.000
    H15      H        0.59530    0.11510    0.04640    1.000
    H16      H        0.63740    0.23260    0.91880    1.000
    H17      H        0.65710    0.42270    0.92340    1.000
    H18      H        0.57710    0.38450    0.18460    1.000
    H19      H        0.65400    0.68480    0.00440    1.000
    H20      H        0.61690    0.60410    0.94550    1.000
    H21      H        0.71680    0.18220    0.38390    1.000
    H22      H        0.90970    0.18950    0.37550    1.000
    H23      H        0.08170    0.19050    0.39090    1.000
    H24      H        0.27720    0.18980    0.38410    1.000
    H25      H        0.36480    0.86660    0.33390    1.000
    H26      H        0.17220    0.85640    0.33940    1.000
    H27      H        0.99160    0.84640    0.36900    1.000
    H28      H        0.79620    0.84960    0.37510    1.000
    C1       C        0.83720    0.44166    0.28658    1.000
    C2       C        0.76161    0.41725    0.37127    1.000
    C3       C        0.80760    0.39914    0.45131    1.000
    C4       C        0.73748    0.37288    0.52734    1.000
    C5       C        0.62328    0.36152    0.52485    1.000
    C6       C        0.57769    0.37783    0.44535    1.000
    C7       C        0.64696    0.40834    0.36886    1.000
    C8       C        0.39545    0.33261    0.50996    1.000
    C9       C        0.43270    0.20566    0.54794    1.000
    C10      C        0.88792    0.22712    0.11910    1.000
    C11      C        0.88276    0.11036    0.12370    1.000
    C12      C        0.98115    0.02481    0.12717    1.000
    C13      C        0.97778    0.89850    0.13186    1.000
    C14      C        0.87785    0.86265    0.11980    1.000
    C15      C        0.87917    0.74437    0.12370    1.000
    C16      C        0.06763    0.69323    0.15300    1.000
    C17      C        0.07421    0.80921    0.15020    1.000
    C18      C        0.08248    0.06268    0.12780    1.000
    C19      C        0.07971    0.18131    0.12380    1.000
    C20      C        0.55834    0.16280    0.21342    1.000
    C21      C        0.58275    0.23839    0.12873    1.000
    C22      C        0.60086    0.19240    0.04869    1.000
    C23      C        0.62712    0.26252    0.97266    1.000
    C24      C        0.63848    0.37672    0.97515    1.000
    C25      C        0.62217    0.42231    0.05465    1.000
    C26      C        0.59166    0.35304    0.13114    1.000
    C27      C        0.66739    0.60455    0.99004    1.000
    C28      C        0.79434    0.56730    0.95206    1.000
    C29      C        0.77288    0.11208    0.38090    1.000
    C30      C        0.88964    0.11724    0.37630    1.000
    C31      C        0.97519    0.01885    0.37283    1.000
    C32      C        0.10150    0.02222    0.36814    1.000
    C33      C        0.13735    0.12215    0.38020    1.000
    C34      C        0.25563    0.12083    0.37630    1.000
    C35      C        0.30677    0.93237    0.34700    1.000
    C36      C        0.19079    0.92579    0.34980    1.000
    C37      C        0.93732    0.91752    0.37220    1.000
    C38      C        0.81869    0.92029    0.37620    1.000
    N1       N        0.98434    0.26450    0.11859    1.000
    N2       N        0.97241    0.66003    0.13785    1.000
    N3       N        0.73550    0.01566    0.38141    1.000
    N4       N        0.33997    0.02759    0.36215    1.000
    O1       O        0.78844    0.48464    0.21839    1.000
    O2       O        0.94733    0.41333    0.28508    1.000
    O3       O        0.46799    0.36577    0.43357    1.000
    O4       O        0.47899    0.12697    0.49918    1.000
    O5       O        0.41014    0.18212    0.62939    1.000
    O6       O        0.51536    0.21156    0.28161    1.000
    O7       O        0.58667    0.05267    0.21492    1.000
    O8       O        0.63423    0.53201    0.06643    1.000
    O9       O        0.87303    0.52101    0.00082    1.000
    O10      O        0.81788    0.58986    0.87061    1.000
    Cd3      Cd       0.02804    0.53577    0.87155    1.000
    Cd4      Cd       0.46423    0.97196    0.62845    1.000
    H29      H        0.11510    0.59530    0.54640    1.000
    H30      H        0.23260    0.63740    0.41880    1.000
    H31      H        0.42270    0.65710    0.42340    1.000
    H32      H        0.38450    0.57710    0.68460    1.000
    H33      H        0.68480    0.65400    0.50440    1.000
    H34      H        0.60410    0.61690    0.44550    1.000
    H35      H        0.18220    0.71680    0.88390    1.000
    H36      H        0.18950    0.90970    0.87550    1.000
    H37      H        0.19050    0.08170    0.89090    1.000
    H38      H        0.18980    0.27720    0.88410    1.000
    H39      H        0.86660    0.36480    0.83390    1.000
    H40      H        0.85640    0.17220    0.83940    1.000
    H41      H        0.84640    0.99160    0.86900    1.000
    H42      H        0.84960    0.79620    0.87510    1.000
    H43      H        0.40470    0.88490    0.95360    1.000
    H44      H        0.36260    0.76740    0.08120    1.000
    H45      H        0.34290    0.57730    0.07660    1.000
    H46      H        0.42290    0.61550    0.81540    1.000
    H47      H        0.34600    0.31520    0.99560    1.000
    H48      H        0.38310    0.39590    0.05450    1.000
    H49      H        0.28320    0.81780    0.61610    1.000
    H50      H        0.09030    0.81050    0.62450    1.000
    H51      H        0.91830    0.80950    0.60910    1.000
    H52      H        0.72280    0.81020    0.61590    1.000
    H53      H        0.63520    0.13340    0.66610    1.000
    H54      H        0.82780    0.14360    0.66060    1.000
    H55      H        0.00840    0.15360    0.63100    1.000
    H56      H        0.20380    0.15040    0.62490    1.000
    C39      C        0.16280    0.55834    0.71342    1.000
    C40      C        0.23839    0.58275    0.62873    1.000
    C41      C        0.19240    0.60086    0.54869    1.000
    C42      C        0.26252    0.62712    0.47266    1.000
    C43      C        0.37672    0.63848    0.47515    1.000
    C44      C        0.42231    0.62217    0.55465    1.000
    C45      C        0.35304    0.59166    0.63114    1.000
    C46      C        0.60455    0.66739    0.49004    1.000
    C47      C        0.56730    0.79434    0.45206    1.000
    C48      C        0.11208    0.77288    0.88090    1.000
    C49      C        0.11724    0.88964    0.87630    1.000
    C50      C        0.01885    0.97519    0.87283    1.000
    C51      C        0.02222    0.10150    0.86814    1.000
    C52      C        0.12215    0.13735    0.88020    1.000
    C53      C        0.12083    0.25563    0.87630    1.000
    C54      C        0.93237    0.30677    0.84700    1.000
    C55      C        0.92579    0.19079    0.84980    1.000
    C56      C        0.91752    0.93732    0.87220    1.000
    C57      C        0.92029    0.81869    0.87620    1.000
    C58      C        0.44166    0.83720    0.78658    1.000
    C59      C        0.41725    0.76161    0.87127    1.000
    C60      C        0.39914    0.80760    0.95131    1.000
    C61      C        0.37288    0.73748    0.02734    1.000
    C62      C        0.36152    0.62328    0.02485    1.000
    C63      C        0.37783    0.57769    0.94535    1.000
    C64      C        0.40834    0.64696    0.86886    1.000
    C65      C        0.33261    0.39545    0.00996    1.000
    C66      C        0.20566    0.43270    0.04794    1.000
    C67      C        0.22712    0.88792    0.61910    1.000
    C68      C        0.11036    0.88276    0.62370    1.000
    C69      C        0.02481    0.98115    0.62717    1.000
    C70      C        0.89850    0.97778    0.63186    1.000
    C71      C        0.86265    0.87785    0.61980    1.000
    C72      C        0.74437    0.87917    0.62370    1.000
    C73      C        0.69323    0.06763    0.65300    1.000
    C74      C        0.80921    0.07421    0.65020    1.000
    C75      C        0.06268    0.08248    0.62780    1.000
    C76      C        0.18131    0.07971    0.62380    1.000
    N5       N        0.01566    0.73550    0.88141    1.000
    N6       N        0.02759    0.33997    0.86215    1.000
    N7       N        0.26450    0.98434    0.61859    1.000
    N8       N        0.66003    0.97241    0.63785    1.000
    O11      O        0.21156    0.51536    0.78161    1.000
    O12      O        0.05267    0.58667    0.71492    1.000
    O13      O        0.53201    0.63423    0.56643    1.000
    O14      O        0.52101    0.87303    0.50082    1.000
    O15      O        0.58986    0.81788    0.37061    1.000
    O16      O        0.48464    0.78844    0.71839    1.000
    O17      O        0.41333    0.94733    0.78508    1.000
    O18      O        0.36577    0.46799    0.93357    1.000
    O19      O        0.12697    0.47899    0.99918    1.000
    O20      O        0.18212    0.41014    0.12939    1.000
