# CIF file generated by openbabel 3.1.0, see https://openbabel.org
data_I
_chemical_name_common 'image0'
_cell_length_a 19.439
_cell_length_b 12.991
_cell_length_c 9.7163
_cell_angle_alpha 90
_cell_angle_beta 93.31
_cell_angle_gamma 90
_space_group_name_H-M_alt 'P 1'
_space_group_name_Hall 'P 1'
loop_
    _symmetry_equiv_pos_as_xyz
    x,y,z
loop_
    _atom_site_label
    _atom_site_type_symbol
    _atom_site_fract_x
    _atom_site_fract_y
    _atom_site_fract_z
    _atom_site_occupancy
    Gd1      Gd       0.33255    0.33092    0.09794    1.000
    Gd2      Gd       0.12294    0.64739    0.99648    1.000
    S1       S        0.31044    0.59311    0.96527    1.000
    S2       S        0.34902    0.11284    0.86784    1.000
    O1       O        0.37310    0.16930    0.74700    1.000
    O2       O        0.24200    0.18550    0.10790    1.000
    O3       O        0.37170    0.17000    0.99430    1.000
    O4       O        0.33930    0.50920    0.05230    1.000
    O5       O        0.23460    0.58500    0.95450    1.000
    O6       O        0.31730    0.19030    0.28170    1.000
    O7       O        0.33990    0.58670    0.82850    1.000
    O8       O        0.33010    0.69190    0.03310    1.000
    O9       O        0.53790    0.18010    0.15710    1.000
    O10      O        0.38120    0.00900    0.87160    1.000
    O11      O        0.45120    0.31350    0.16920    1.000
    O12      O        0.27450    0.10080    0.85540    1.000
    C1       C        0.26730    0.14600    0.21690    1.000
    H1       H        0.24930    0.08920    0.25630    1.000
    Gd3      Gd       0.83255    0.83092    0.09794    1.000
    Gd4      Gd       0.62294    0.14739    0.99648    1.000
    S3       S        0.81044    0.09311    0.96527    1.000
    S4       S        0.84902    0.61284    0.86784    1.000
    O13      O        0.87310    0.66930    0.74700    1.000
    O14      O        0.74200    0.68550    0.10790    1.000
    O15      O        0.87170    0.67000    0.99430    1.000
    O16      O        0.83930    0.00920    0.05230    1.000
    O17      O        0.73460    0.08500    0.95450    1.000
    O18      O        0.81730    0.69030    0.28170    1.000
    O19      O        0.83990    0.08670    0.82850    1.000
    O20      O        0.83010    0.19190    0.03310    1.000
    O21      O        0.03790    0.68010    0.15710    1.000
    O22      O        0.88120    0.50900    0.87160    1.000
    O23      O        0.95120    0.81350    0.16920    1.000
    O24      O        0.77450    0.60080    0.85540    1.000
    C2       C        0.76730    0.64600    0.21690    1.000
    H2       H        0.74930    0.58920    0.25630    1.000
    Gd5      Gd       0.66745    0.33092    0.40206    1.000
    Gd6      Gd       0.87706    0.64739    0.50352    1.000
    S5       S        0.68956    0.59311    0.53473    1.000
    S6       S        0.65098    0.11284    0.63216    1.000
    O25      O        0.62690    0.16930    0.75300    1.000
    O26      O        0.75800    0.18550    0.39210    1.000
    O27      O        0.62830    0.17000    0.50570    1.000
    O28      O        0.66070    0.50920    0.44770    1.000
    O29      O        0.76540    0.58500    0.54550    1.000
    O30      O        0.68270    0.19030    0.21830    1.000
    O31      O        0.66010    0.58670    0.67150    1.000
    O32      O        0.66990    0.69190    0.46690    1.000
    O33      O        0.46210    0.18010    0.34290    1.000
    O34      O        0.61880    0.00900    0.62840    1.000
    O35      O        0.54880    0.31350    0.33080    1.000
    O36      O        0.72550    0.10080    0.64460    1.000
    C3       C        0.73270    0.14600    0.28310    1.000
    H3       H        0.75070    0.08920    0.24370    1.000
    Gd7      Gd       0.16745    0.83092    0.40206    1.000
    Gd8      Gd       0.37706    0.14739    0.50352    1.000
    S7       S        0.18956    0.09311    0.53473    1.000
    S8       S        0.15098    0.61284    0.63216    1.000
    O37      O        0.12690    0.66930    0.75300    1.000
    O38      O        0.25800    0.68550    0.39210    1.000
    O39      O        0.12830    0.67000    0.50570    1.000
    O40      O        0.16070    0.00920    0.44770    1.000
    O41      O        0.26540    0.08500    0.54550    1.000
    O42      O        0.18270    0.69030    0.21830    1.000
    O43      O        0.16010    0.08670    0.67150    1.000
    O44      O        0.16990    0.19190    0.46690    1.000
    O45      O        0.96210    0.68010    0.34290    1.000
    O46      O        0.11880    0.50900    0.62840    1.000
    O47      O        0.04880    0.81350    0.33080    1.000
    O48      O        0.22550    0.60080    0.64460    1.000
    C4       C        0.23270    0.64600    0.28310    1.000
    H4       H        0.25070    0.58920    0.24370    1.000
    Gd9      Gd       0.66745    0.66908    0.90206    1.000
    Gd10     Gd       0.87706    0.35261    0.00352    1.000
    S9       S        0.68956    0.40689    0.03473    1.000
    S10      S        0.65098    0.88716    0.13216    1.000
    O49      O        0.62690    0.83070    0.25300    1.000
    O50      O        0.75800    0.81450    0.89210    1.000
    O51      O        0.62830    0.83000    0.00570    1.000
    O52      O        0.66070    0.49080    0.94770    1.000
    O53      O        0.76540    0.41500    0.04550    1.000
    O54      O        0.68270    0.80970    0.71830    1.000
    O55      O        0.66010    0.41330    0.17150    1.000
    O56      O        0.66990    0.30810    0.96690    1.000
    O57      O        0.46210    0.81990    0.84290    1.000
    O58      O        0.61880    0.99100    0.12840    1.000
    O59      O        0.54880    0.68650    0.83080    1.000
    O60      O        0.72550    0.89920    0.14460    1.000
    C5       C        0.73270    0.85400    0.78310    1.000
    H5       H        0.75070    0.91080    0.74370    1.000
    Gd11     Gd       0.16745    0.16908    0.90206    1.000
    Gd12     Gd       0.37706    0.85261    0.00352    1.000
    S11      S        0.18956    0.90689    0.03473    1.000
    S12      S        0.15098    0.38716    0.13216    1.000
    O61      O        0.12690    0.33070    0.25300    1.000
    O62      O        0.25800    0.31450    0.89210    1.000
    O63      O        0.12830    0.33000    0.00570    1.000
    O64      O        0.16070    0.99080    0.94770    1.000
    O65      O        0.26540    0.91500    0.04550    1.000
    O66      O        0.18270    0.30970    0.71830    1.000
    O67      O        0.16010    0.91330    0.17150    1.000
    O68      O        0.16990    0.80810    0.96690    1.000
    O69      O        0.96210    0.31990    0.84290    1.000
    O70      O        0.11880    0.49100    0.12840    1.000
    O71      O        0.04880    0.18650    0.83080    1.000
    O72      O        0.22550    0.39920    0.14460    1.000
    C6       C        0.23270    0.35400    0.78310    1.000
    H6       H        0.25070    0.41080    0.74370    1.000
    Gd13     Gd       0.33255    0.66908    0.59794    1.000
    Gd14     Gd       0.12294    0.35261    0.49648    1.000
    S13      S        0.31044    0.40689    0.46527    1.000
    S14      S        0.34902    0.88716    0.36784    1.000
    O73      O        0.37310    0.83070    0.24700    1.000
    O74      O        0.24200    0.81450    0.60790    1.000
    O75      O        0.37170    0.83000    0.49430    1.000
    O76      O        0.33930    0.49080    0.55230    1.000
    O77      O        0.23460    0.41500    0.45450    1.000
    O78      O        0.31730    0.80970    0.78170    1.000
    O79      O        0.33990    0.41330    0.32850    1.000
    O80      O        0.33010    0.30810    0.53310    1.000
    O81      O        0.53790    0.81990    0.65710    1.000
    O82      O        0.38120    0.99100    0.37160    1.000
    O83      O        0.45120    0.68650    0.66920    1.000
    O84      O        0.27450    0.89920    0.35540    1.000
    C7       C        0.26730    0.85400    0.71690    1.000
    H7       H        0.24930    0.91080    0.75630    1.000
    Gd15     Gd       0.83255    0.16908    0.59794    1.000
    Gd16     Gd       0.62294    0.85261    0.49648    1.000
    S15      S        0.81044    0.90689    0.46527    1.000
    S16      S        0.84902    0.38716    0.36784    1.000
    O85      O        0.87310    0.33070    0.24700    1.000
    O86      O        0.74200    0.31450    0.60790    1.000
    O87      O        0.87170    0.33000    0.49430    1.000
    O88      O        0.83930    0.99080    0.55230    1.000
    O89      O        0.73460    0.91500    0.45450    1.000
    O90      O        0.81730    0.30970    0.78170    1.000
    O91      O        0.83990    0.91330    0.32850    1.000
    O92      O        0.83010    0.80810    0.53310    1.000
    O93      O        0.03790    0.31990    0.65710    1.000
    O94      O        0.88120    0.49100    0.37160    1.000
    O95      O        0.95120    0.18650    0.66920    1.000
    O96      O        0.77450    0.39920    0.35540    1.000
    C8       C        0.76730    0.35400    0.71690    1.000
    H8       H        0.74930    0.41080    0.75630    1.000
    S17      S        0.50000    0.24700    0.25000    1.000
    S18      S        0.00000    0.74700    0.25000    1.000
    S19      S        0.50000    0.75300    0.75000    1.000
    S20      S        0.00000    0.25300    0.75000    1.000
