# CIF file generated by openbabel 3.1.0, see https://openbabel.org
data_I
_chemical_name_common 'image0'
_cell_length_a 27.249
_cell_length_b 27.42
_cell_length_c 25.189
_cell_angle_alpha 90
_cell_angle_beta 90
_cell_angle_gamma 90
_space_group_name_H-M_alt 'P 1'
_space_group_name_Hall 'P 1'
loop_
    _symmetry_equiv_pos_as_xyz
    x,y,z
loop_
    _atom_site_label
    _atom_site_type_symbol
    _atom_site_fract_x
    _atom_site_fract_y
    _atom_site_fract_z
    _atom_site_occupancy
    W1       W        0.19158    0.81996    0.62329    1.000
    W2       W        0.03685    0.88659    0.46567    1.000
    W3       W        0.20742    0.76221    0.39150    1.000
    W4       W        0.14602    0.93021    0.41937    1.000
    W5       W        0.25612    0.75590    0.51486    1.000
    W6       W        0.08919    0.71518    0.43969    1.000
    W7       W        0.13756    0.70927    0.56367    1.000
    W8       W        0.03234    0.77242    0.54265    1.000
    W9       W        0.26024    0.86309    0.44661    1.000
    W10      W        0.08614    0.88282    0.60168    1.000
    W11      W        0.19633    0.92645    0.55583    1.000
    W12      W        0.09440    0.82986    0.36378    1.000
    Co1      Co       0.90150    0.91062    0.47069    1.000
    Co2      Co       0.25113    0.71621    0.25760    1.000
    P1       P        0.14452    0.82089    0.49435    1.000
    O1       O        0.15270    0.84850    0.54650    1.000
    O2       O        0.98040    0.91390    0.46400    1.000
    O3       O        0.22590    0.73260    0.33530    1.000
    O4       O        0.19460    0.80650    0.47090    1.000
    O5       O        0.12420    0.89340    0.36080    1.000
    O6       O        0.15610    0.72260    0.41540    1.000
    O7       O        0.24240    0.89610    0.51040    1.000
    O8       O        0.05920    0.90200    0.53510    1.000
    O9       O        0.13540    0.93240    0.59390    1.000
    O10      O        0.11700    0.85370    0.45480    1.000
    O11      O        0.05580    0.82150    0.58920    1.000
    O12      O        0.06960    0.72450    0.57930    1.000
    O13      O        0.11510    0.68010    0.49970    1.000
    O14      O        0.25230    0.81650    0.39090    1.000
    O15      O        0.16170    0.94340    0.49290    1.000
    O16      O        0.15580    0.76190    0.60950    1.000
    O17      O        0.23880    0.79510    0.57480    1.000
    O18      O        0.24990    0.73380    0.44350    1.000
    O19      O        0.02190    0.82440    0.49280    1.000
    O20      O        0.21720    0.88390    0.61240    1.000
    O21      O        0.03870    0.85960    0.39580    1.000
    O22      O        0.15870    0.80360    0.36360    1.000
    O23      O        0.28950    0.81240    0.48700    1.000
    O24      O        0.20110    0.71720    0.53320    1.000
    O25      O        0.03270    0.72910    0.48150    1.000
    O26      O        0.07790    0.93810    0.43910    1.000
    O27      O        0.07640    0.77010    0.39690    1.000
    O28      O        0.11410    0.77490    0.50530    1.000
    O29      O        0.21890    0.80610    0.68230    1.000
    O30      O        0.13260    0.84970    0.64720    1.000
    O31      O        0.20760    0.89980    0.41580    1.000
    N1       N        0.54990    0.99610    0.71840    1.000
    N2       N        0.75190    0.92450    0.51530    1.000
    N3       N        0.32280    0.73300    0.28460    1.000
    N4       N        0.61220    0.96090    0.67650    1.000
    N5       N        0.40330    0.73750    0.28610    1.000
    N6       N        0.91200    0.05720    0.80620    1.000
    N7       N        0.82420    0.91540    0.47830    1.000
    N8       N        0.22570    0.06490    0.28190    1.000
    N9       N        0.24470    0.78890    0.22860    1.000
    N10      N        0.23980    0.86820    0.22170    1.000
    N11      N        0.18030    0.70280    0.22800    1.000
    N12      N        0.92850    0.92610    0.63650    1.000
    N13      N        0.09930    0.69950    0.22250    1.000
    N14      N        0.90150    0.08580    0.88690    1.000
    N15      N        0.23710    0.14430    0.28280    1.000
    N16      N        0.91640    0.90530    0.55220    1.000
    C1       C        0.58050    0.99630    0.68090    1.000
    H1       H        0.58050    0.02160    0.65640    1.000
    C2       C        0.60600    0.93100    0.71600    1.000
    H2       H        0.62060    0.90110    0.72410    1.000
    C3       C        0.56640    0.95920    0.74700    1.000
    H3       H        0.55550    0.95140    0.78050    1.000
    C4       C        0.16930    0.70170    0.17790    1.000
    H4       H        0.19180    0.70230    0.15010    1.000
    C5       C        0.11740    0.69920    0.17190    1.000
    H5       H        0.09960    0.69770    0.14040    1.000
    C6       C        0.03400    0.71050    0.28470    1.000
    H6       H        0.05670    0.72260    0.30900    1.000
    C7       C        0.01490    0.70320    0.19960    1.000
    H7       H        0.02320    0.70070    0.16390    1.000
    C8       C        0.26480    0.80400    0.18190    1.000
    H8       H        0.27860    0.78310    0.15700    1.000
    C9       C        0.64710    0.95150    0.63190    1.000
    C10      C        0.65700    0.90560    0.61750    1.000
    H9       H        0.64030    0.87990    0.63350    1.000
    C11      C        0.69290    0.89590    0.57750    1.000
    H10      H        0.70100    0.86420    0.56810    1.000
    C12      C        0.26230    0.85320    0.17600    1.000
    H11      H        0.27320    0.87210    0.14770    1.000
    C13      C        0.74520    0.89700    0.46900    1.000
    H12      H        0.71590    0.88530    0.45510    1.000
    C14      C        0.38760    0.75970    0.33030    1.000
    H13      H        0.40680    0.77400    0.35660    1.000
    C15      C        0.89570    0.12330    0.85090    1.000
    H14      H        0.88800    0.15540    0.85930    1.000
    C16      C        0.67140    0.99100    0.60880    1.000
    H15      H        0.66540    0.02270    0.62020    1.000
    C17      C        0.46190    0.73220    0.21370    1.000
    H16      H        0.43640    0.73180    0.18920    1.000
    C18      C        0.22610    0.95400    0.19770    1.000
    H17      H        0.22310    0.94550    0.16210    1.000
    C19      C        0.70400    0.98190    0.56890    1.000
    H18      H        0.71910    0.00780    0.55160    1.000
    C20      C        0.92460    0.87660    0.63440    1.000
    H19      H        0.92660    0.85570    0.66340    1.000
    C21      C        0.91760    0.86280    0.58420    1.000
    H20      H        0.91400    0.83090    0.57230    1.000
    C22      C        0.23300    0.97990    0.30320    1.000
    H21      H        0.23380    0.98890    0.33880    1.000
    C23      C        0.33810    0.75730    0.32880    1.000
    H22      H        0.31740    0.77030    0.35450    1.000
    C24      C        0.94340    0.03740    0.71850    1.000
    H23      H        0.95670    0.06850    0.71560    1.000
    C25      C        0.79180    0.89100    0.44840    1.000
    H24      H        0.79950    0.87280    0.41840    1.000
    C26      C        0.20640    0.08160    0.32860    1.000
    H25      H        0.19140    0.06300    0.35490    1.000
    C27      C        0.92000    0.02340    0.76430    1.000
    C28      C        0.45260    0.73310    0.26660    1.000
    C29      C        0.13900    0.70380    0.25360    1.000
    H26      H        0.13710    0.70720    0.29030    1.000
    C30      C        0.80010    0.93510    0.51770    1.000
    H27      H        0.81450    0.95410    0.54400    1.000
    C31      C        0.48920    0.73210    0.30270    1.000
    H28      H        0.48180    0.73120    0.33870    1.000
    C32      C        0.24310    0.10400    0.25610    1.000
    H29      H        0.25780    0.10260    0.22280    1.000
    C33      C        0.22280    0.00220    0.21360    1.000
    H30      H        0.21680    0.02640    0.18860    1.000
    C34      C        0.90210    0.97520    0.76990    1.000
    H31      H        0.88760    0.96520    0.80140    1.000
    C35      C        0.23650    0.93100    0.28890    1.000
    H32      H        0.24050    0.90720    0.31480    1.000
    C36      C        0.92850    0.95830    0.68080    1.000
    C37      C        0.92340    0.94100    0.58450    1.000
    H33      H        0.92490    0.97340    0.57380    1.000
    C38      C        0.90340    0.10520    0.80070    1.000
    H34      H        0.90270    0.12280    0.76920    1.000
    C39      C        0.23130    0.82930    0.25150    1.000
    H35      H        0.21730    0.83070    0.28520    1.000
    C40      C        0.22830    0.01410    0.26490    1.000
    C41      C        0.36290    0.72120    0.26040    1.000
    H36      H        0.36390    0.70360    0.22890    1.000
    C42      C        0.23410    0.91810    0.23670    1.000
    C43      C        0.04800    0.70020    0.23570    1.000
    C44      C        0.21350    0.13050    0.32900    1.000
    H37      H        0.20400    0.15150    0.35610    1.000
    C45      C        0.94730    0.00430    0.67610    1.000
    H38      H        0.96270    0.01370    0.64480    1.000
    C46      C        0.90990    0.04690    0.85890    1.000
    H39      H        0.91400    0.01590    0.87320    1.000
    C47      C        0.71470    0.93480    0.55390    1.000
    C48      C        0.90650    0.94330    0.72770    1.000
    H40      H        0.89480    0.91160    0.73080    1.000
    W13      W        0.30842    0.68004    0.12329    1.000
    W14      W        0.46315    0.61341    0.96567    1.000
    W15      W        0.29258    0.73779    0.89150    1.000
    W16      W        0.35398    0.56979    0.91937    1.000
    W17      W        0.24388    0.74410    0.01486    1.000
    W18      W        0.41081    0.78482    0.93969    1.000
    W19      W        0.36244    0.79073    0.06367    1.000
    W20      W        0.46766    0.72758    0.04265    1.000
    W21      W        0.23976    0.63691    0.94661    1.000
    W22      W        0.41386    0.61718    0.10168    1.000
    W23      W        0.30367    0.57355    0.05583    1.000
    W24      W        0.40560    0.67014    0.86378    1.000
    Co3      Co       0.59850    0.58938    0.97069    1.000
    Co4      Co       0.24887    0.78379    0.75760    1.000
    P2       P        0.35548    0.67911    0.99435    1.000
    O32      O        0.34730    0.65150    0.04650    1.000
    O33      O        0.51960    0.58610    0.96400    1.000
    O34      O        0.27410    0.76740    0.83530    1.000
    O35      O        0.30540    0.69350    0.97090    1.000
    O36      O        0.37580    0.60660    0.86080    1.000
    O37      O        0.34390    0.77740    0.91540    1.000
    O38      O        0.25760    0.60390    0.01040    1.000
    O39      O        0.44080    0.59800    0.03510    1.000
    O40      O        0.36460    0.56760    0.09390    1.000
    O41      O        0.38300    0.64630    0.95480    1.000
    O42      O        0.44420    0.67850    0.08920    1.000
    O43      O        0.43040    0.77550    0.07930    1.000
    O44      O        0.38490    0.81990    0.99970    1.000
    O45      O        0.24770    0.68350    0.89090    1.000
    O46      O        0.33830    0.55660    0.99290    1.000
    O47      O        0.34420    0.73810    0.10950    1.000
    O48      O        0.26120    0.70490    0.07480    1.000
    O49      O        0.25010    0.76620    0.94350    1.000
    O50      O        0.47810    0.67560    0.99280    1.000
    O51      O        0.28280    0.61610    0.11240    1.000
    O52      O        0.46130    0.64040    0.89580    1.000
    O53      O        0.34130    0.69640    0.86360    1.000
    O54      O        0.21050    0.68760    0.98700    1.000
    O55      O        0.29890    0.78280    0.03320    1.000
    O56      O        0.46730    0.77090    0.98150    1.000
    O57      O        0.42210    0.56190    0.93910    1.000
    O58      O        0.42360    0.72990    0.89690    1.000
    O59      O        0.38590    0.72510    0.00530    1.000
    O60      O        0.28110    0.69390    0.18230    1.000
    O61      O        0.36740    0.65030    0.14720    1.000
    O62      O        0.29240    0.60020    0.91580    1.000
    N17      N        0.95010    0.50390    0.21840    1.000
    N18      N        0.74810    0.57550    0.01530    1.000
    N19      N        0.17720    0.76700    0.78460    1.000
    N20      N        0.88780    0.53910    0.17650    1.000
    N21      N        0.09670    0.76250    0.78610    1.000
    N22      N        0.58800    0.44280    0.30620    1.000
    N23      N        0.67580    0.58460    0.97830    1.000
    N24      N        0.27430    0.43510    0.78190    1.000
    N25      N        0.25530    0.71110    0.72860    1.000
    N26      N        0.26020    0.63180    0.72170    1.000
    N27      N        0.31970    0.79720    0.72800    1.000
    N28      N        0.57150    0.57390    0.13650    1.000
    N29      N        0.40070    0.80050    0.72250    1.000
    N30      N        0.59850    0.41420    0.38690    1.000
    N31      N        0.26290    0.35570    0.78280    1.000
    N32      N        0.58360    0.59470    0.05220    1.000
    C49      C        0.91950    0.50370    0.18090    1.000
    H41      H        0.91950    0.47840    0.15640    1.000
    C50      C        0.89400    0.56900    0.21600    1.000
    H42      H        0.87940    0.59890    0.22410    1.000
    C51      C        0.93360    0.54080    0.24700    1.000
    H43      H        0.94450    0.54860    0.28050    1.000
    C52      C        0.33070    0.79830    0.67790    1.000
    H44      H        0.30820    0.79770    0.65010    1.000
    C53      C        0.38260    0.80080    0.67190    1.000
    H45      H        0.40040    0.80230    0.64040    1.000
    C54      C        0.46600    0.78950    0.78470    1.000
    H46      H        0.44330    0.77740    0.80900    1.000
    C55      C        0.48510    0.79680    0.69960    1.000
    H47      H        0.47680    0.79930    0.66390    1.000
    C56      C        0.23520    0.69600    0.68190    1.000
    H48      H        0.22140    0.71690    0.65700    1.000
    C57      C        0.85290    0.54850    0.13190    1.000
    C58      C        0.84300    0.59440    0.11750    1.000
    H49      H        0.85970    0.62010    0.13350    1.000
    C59      C        0.80710    0.60410    0.07750    1.000
    H50      H        0.79900    0.63580    0.06810    1.000
    C60      C        0.23770    0.64680    0.67600    1.000
    H51      H        0.22680    0.62790    0.64770    1.000
    C61      C        0.75480    0.60300    0.96900    1.000
    H52      H        0.78410    0.61470    0.95510    1.000
    C62      C        0.11240    0.74030    0.83030    1.000
    H53      H        0.09320    0.72600    0.85660    1.000
    C63      C        0.60430    0.37670    0.35090    1.000
    H54      H        0.61200    0.34460    0.35930    1.000
    C64      C        0.82860    0.50900    0.10880    1.000
    H55      H        0.83460    0.47730    0.12020    1.000
    C65      C        0.03810    0.76780    0.71370    1.000
    H56      H        0.06360    0.76820    0.68920    1.000
    C66      C        0.27390    0.54600    0.69770    1.000
    H57      H        0.27690    0.55450    0.66210    1.000
    C67      C        0.79600    0.51810    0.06890    1.000
    H58      H        0.78090    0.49220    0.05160    1.000
    C68      C        0.57540    0.62340    0.13440    1.000
    H59      H        0.57340    0.64430    0.16340    1.000
    C69      C        0.58240    0.63720    0.08420    1.000
    H60      H        0.58600    0.66910    0.07230    1.000
    C70      C        0.26700    0.52010    0.80320    1.000
    H61      H        0.26620    0.51110    0.83880    1.000
    C71      C        0.16190    0.74270    0.82880    1.000
    H62      H        0.18260    0.72970    0.85450    1.000
    C72      C        0.55660    0.46260    0.21850    1.000
    H63      H        0.54330    0.43150    0.21560    1.000
    C73      C        0.70820    0.60900    0.94840    1.000
    H64      H        0.70050    0.62720    0.91840    1.000
    C74      C        0.29360    0.41840    0.82860    1.000
    H65      H        0.30860    0.43700    0.85490    1.000
    C75      C        0.58000    0.47660    0.26430    1.000
    C76      C        0.04740    0.76690    0.76660    1.000
    C77      C        0.36100    0.79620    0.75360    1.000
    H66      H        0.36290    0.79280    0.79030    1.000
    C78      C        0.69990    0.56490    0.01770    1.000
    H67      H        0.68550    0.54590    0.04400    1.000
    C79      C        0.01080    0.76790    0.80270    1.000
    H68      H        0.01820    0.76880    0.83870    1.000
    C80      C        0.25690    0.39600    0.75610    1.000
    H69      H        0.24220    0.39740    0.72280    1.000
    C81      C        0.27720    0.49780    0.71360    1.000
    H70      H        0.28320    0.47360    0.68860    1.000
    C82      C        0.59790    0.52480    0.26990    1.000
    H71      H        0.61240    0.53480    0.30140    1.000
    C83      C        0.26350    0.56900    0.78890    1.000
    H72      H        0.25950    0.59280    0.81480    1.000
    C84      C        0.57150    0.54170    0.18080    1.000
    C85      C        0.57660    0.55900    0.08450    1.000
    H73      H        0.57510    0.52660    0.07380    1.000
    C86      C        0.59660    0.39480    0.30070    1.000
    H74      H        0.59730    0.37720    0.26920    1.000
    C87      C        0.26870    0.67070    0.75150    1.000
    H75      H        0.28270    0.66930    0.78520    1.000
    C88      C        0.27170    0.48590    0.76490    1.000
    C89      C        0.13710    0.77880    0.76040    1.000
    H76      H        0.13610    0.79640    0.72890    1.000
    C90      C        0.26590    0.58190    0.73670    1.000
    C91      C        0.45200    0.79980    0.73570    1.000
    C92      C        0.28650    0.36950    0.82900    1.000
    H77      H        0.29600    0.34850    0.85610    1.000
    C93      C        0.55270    0.49570    0.17610    1.000
    H78      H        0.53730    0.48630    0.14480    1.000
    C94      C        0.59010    0.45310    0.35890    1.000
    H79      H        0.58600    0.48410    0.37320    1.000
    C95      C        0.78530    0.56520    0.05390    1.000
    C96      C        0.59350    0.55670    0.22770    1.000
    H80      H        0.60520    0.58840    0.23080    1.000
    W25      W        0.80842    0.81996    0.87671    1.000
    W26      W        0.96315    0.88659    0.03433    1.000
    W27      W        0.79258    0.76221    0.10850    1.000
    W28      W        0.85398    0.93021    0.08063    1.000
    W29      W        0.74388    0.75590    0.98514    1.000
    W30      W        0.91081    0.71518    0.06031    1.000
    W31      W        0.86244    0.70927    0.93633    1.000
    W32      W        0.96766    0.77242    0.95735    1.000
    W33      W        0.73976    0.86309    0.05339    1.000
    W34      W        0.91386    0.88282    0.89832    1.000
    W35      W        0.80367    0.92645    0.94417    1.000
    W36      W        0.90560    0.82986    0.13622    1.000
    Co5      Co       0.09850    0.91062    0.02931    1.000
    Co6      Co       0.74887    0.71621    0.24240    1.000
    P3       P        0.85548    0.82089    0.00565    1.000
    O63      O        0.84730    0.84850    0.95350    1.000
    O64      O        0.01960    0.91390    0.03600    1.000
    O65      O        0.77410    0.73260    0.16470    1.000
    O66      O        0.80540    0.80650    0.02910    1.000
    O67      O        0.87580    0.89340    0.13920    1.000
    O68      O        0.84390    0.72260    0.08460    1.000
    O69      O        0.75760    0.89610    0.98960    1.000
    O70      O        0.94080    0.90200    0.96490    1.000
    O71      O        0.86460    0.93240    0.90610    1.000
    O72      O        0.88300    0.85370    0.04520    1.000
    O73      O        0.94420    0.82150    0.91080    1.000
    O74      O        0.93040    0.72450    0.92070    1.000
    O75      O        0.88490    0.68010    0.00030    1.000
    O76      O        0.74770    0.81650    0.10910    1.000
    O77      O        0.83830    0.94340    0.00710    1.000
    O78      O        0.84420    0.76190    0.89050    1.000
    O79      O        0.76120    0.79510    0.92520    1.000
    O80      O        0.75010    0.73380    0.05650    1.000
    O81      O        0.97810    0.82440    0.00720    1.000
    O82      O        0.78280    0.88390    0.88760    1.000
    O83      O        0.96130    0.85960    0.10420    1.000
    O84      O        0.84130    0.80360    0.13640    1.000
    O85      O        0.71050    0.81240    0.01300    1.000
    O86      O        0.79890    0.71720    0.96680    1.000
    O87      O        0.96730    0.72910    0.01850    1.000
    O88      O        0.92210    0.93810    0.06090    1.000
    O89      O        0.92360    0.77010    0.10310    1.000
    O90      O        0.88590    0.77490    0.99470    1.000
    O91      O        0.78110    0.80610    0.81770    1.000
    O92      O        0.86740    0.84970    0.85280    1.000
    O93      O        0.79240    0.89980    0.08420    1.000
    N33      N        0.45010    0.99610    0.78160    1.000
    N34      N        0.24810    0.92450    0.98470    1.000
    N35      N        0.67720    0.73300    0.21540    1.000
    N36      N        0.38780    0.96090    0.82350    1.000
    N37      N        0.59670    0.73750    0.21390    1.000
    N38      N        0.08800    0.05720    0.69380    1.000
    N39      N        0.17580    0.91540    0.02170    1.000
    N40      N        0.77430    0.06490    0.21810    1.000
    N41      N        0.75530    0.78890    0.27140    1.000
    N42      N        0.76020    0.86820    0.27830    1.000
    N43      N        0.81970    0.70280    0.27200    1.000
    N44      N        0.07150    0.92610    0.86350    1.000
    N45      N        0.90070    0.69950    0.27750    1.000
    N46      N        0.09850    0.08580    0.61310    1.000
    N47      N        0.76290    0.14430    0.21720    1.000
    N48      N        0.08360    0.90530    0.94780    1.000
    C97      C        0.41950    0.99630    0.81910    1.000
    H81      H        0.41950    0.02160    0.84360    1.000
    C98      C        0.39400    0.93100    0.78400    1.000
    H82      H        0.37940    0.90110    0.77590    1.000
    C99      C        0.43360    0.95920    0.75300    1.000
    H83      H        0.44450    0.95140    0.71950    1.000
    C100     C        0.83070    0.70170    0.32210    1.000
    H84      H        0.80820    0.70230    0.34990    1.000
    C101     C        0.88260    0.69920    0.32810    1.000
    H85      H        0.90040    0.69770    0.35960    1.000
    C102     C        0.96600    0.71050    0.21530    1.000
    H86      H        0.94330    0.72260    0.19100    1.000
    C103     C        0.98510    0.70320    0.30040    1.000
    H87      H        0.97680    0.70070    0.33610    1.000
    C104     C        0.73520    0.80400    0.31810    1.000
    H88      H        0.72140    0.78310    0.34300    1.000
    C105     C        0.35290    0.95150    0.86810    1.000
    C106     C        0.34300    0.90560    0.88250    1.000
    H89      H        0.35970    0.87990    0.86650    1.000
    C107     C        0.30710    0.89590    0.92250    1.000
    H90      H        0.29900    0.86420    0.93190    1.000
    C108     C        0.73770    0.85320    0.32400    1.000
    H91      H        0.72680    0.87210    0.35230    1.000
    C109     C        0.25480    0.89700    0.03100    1.000
    H92      H        0.28410    0.88530    0.04490    1.000
    C110     C        0.61240    0.75970    0.16970    1.000
    H93      H        0.59320    0.77400    0.14340    1.000
    C111     C        0.10430    0.12330    0.64910    1.000
    H94      H        0.11200    0.15540    0.64070    1.000
    C112     C        0.32860    0.99100    0.89120    1.000
    H95      H        0.33460    0.02270    0.87980    1.000
    C113     C        0.53810    0.73220    0.28630    1.000
    H96      H        0.56360    0.73180    0.31080    1.000
    C114     C        0.77390    0.95400    0.30230    1.000
    H97      H        0.77690    0.94550    0.33790    1.000
    C115     C        0.29600    0.98190    0.93110    1.000
    H98      H        0.28090    0.00780    0.94840    1.000
    C116     C        0.07540    0.87660    0.86560    1.000
    H99      H        0.07340    0.85570    0.83660    1.000
    C117     C        0.08240    0.86280    0.91580    1.000
    H100     H        0.08600    0.83090    0.92770    1.000
    C118     C        0.76700    0.97990    0.19680    1.000
    H101     H        0.76620    0.98890    0.16120    1.000
    C119     C        0.66190    0.75730    0.17120    1.000
    H102     H        0.68260    0.77030    0.14550    1.000
    C120     C        0.05660    0.03740    0.78150    1.000
    H103     H        0.04330    0.06850    0.78440    1.000
    C121     C        0.20820    0.89100    0.05160    1.000
    H104     H        0.20050    0.87280    0.08160    1.000
    C122     C        0.79360    0.08160    0.17140    1.000
    H105     H        0.80860    0.06300    0.14510    1.000
    C123     C        0.08000    0.02340    0.73570    1.000
    C124     C        0.54740    0.73310    0.23340    1.000
    C125     C        0.86100    0.70380    0.24640    1.000
    H106     H        0.86290    0.70720    0.20970    1.000
    C126     C        0.19990    0.93510    0.98230    1.000
    H107     H        0.18550    0.95410    0.95600    1.000
    C127     C        0.51080    0.73210    0.19730    1.000
    H108     H        0.51820    0.73120    0.16130    1.000
    C128     C        0.75690    0.10400    0.24390    1.000
    H109     H        0.74220    0.10260    0.27720    1.000
    C129     C        0.77720    0.00220    0.28640    1.000
    H110     H        0.78320    0.02640    0.31140    1.000
    C130     C        0.09790    0.97520    0.73010    1.000
    H111     H        0.11240    0.96520    0.69860    1.000
    C131     C        0.76350    0.93100    0.21110    1.000
    H112     H        0.75950    0.90720    0.18520    1.000
    C132     C        0.07150    0.95830    0.81920    1.000
    C133     C        0.07660    0.94100    0.91550    1.000
    H113     H        0.07510    0.97340    0.92620    1.000
    C134     C        0.09660    0.10520    0.69930    1.000
    H114     H        0.09730    0.12280    0.73080    1.000
    C135     C        0.76870    0.82930    0.24850    1.000
    H115     H        0.78270    0.83070    0.21480    1.000
    C136     C        0.77170    0.01410    0.23510    1.000
    C137     C        0.63710    0.72120    0.23960    1.000
    H116     H        0.63610    0.70360    0.27110    1.000
    C138     C        0.76590    0.91810    0.26330    1.000
    C139     C        0.95200    0.70020    0.26430    1.000
    C140     C        0.78650    0.13050    0.17100    1.000
    H117     H        0.79600    0.15150    0.14390    1.000
    C141     C        0.05270    0.00430    0.82390    1.000
    H118     H        0.03730    0.01370    0.85520    1.000
    C142     C        0.09010    0.04690    0.64110    1.000
    H119     H        0.08600    0.01590    0.62680    1.000
    C143     C        0.28530    0.93480    0.94610    1.000
    C144     C        0.09350    0.94330    0.77230    1.000
    H120     H        0.10520    0.91160    0.76920    1.000
    W37      W        0.69158    0.68004    0.37671    1.000
    W38      W        0.53685    0.61341    0.53433    1.000
    W39      W        0.70742    0.73779    0.60850    1.000
    W40      W        0.64602    0.56979    0.58063    1.000
    W41      W        0.75612    0.74410    0.48514    1.000
    W42      W        0.58919    0.78482    0.56031    1.000
    W43      W        0.63756    0.79073    0.43633    1.000
    W44      W        0.53234    0.72758    0.45735    1.000
    W45      W        0.76024    0.63691    0.55339    1.000
    W46      W        0.58614    0.61718    0.39832    1.000
    W47      W        0.69633    0.57355    0.44417    1.000
    W48      W        0.59440    0.67014    0.63622    1.000
    Co7      Co       0.40150    0.58938    0.52931    1.000
    Co8      Co       0.75113    0.78379    0.74240    1.000
    P4       P        0.64452    0.67911    0.50565    1.000
    O94      O        0.65270    0.65150    0.45350    1.000
    O95      O        0.48040    0.58610    0.53600    1.000
    O96      O        0.72590    0.76740    0.66470    1.000
    O97      O        0.69460    0.69350    0.52910    1.000
    O98      O        0.62420    0.60660    0.63920    1.000
    O99      O        0.65610    0.77740    0.58460    1.000
    O100     O        0.74240    0.60390    0.48960    1.000
    O101     O        0.55920    0.59800    0.46490    1.000
    O102     O        0.63540    0.56760    0.40610    1.000
    O103     O        0.61700    0.64630    0.54520    1.000
    O104     O        0.55580    0.67850    0.41080    1.000
    O105     O        0.56960    0.77550    0.42070    1.000
    O106     O        0.61510    0.81990    0.50030    1.000
    O107     O        0.75230    0.68350    0.60910    1.000
    O108     O        0.66170    0.55660    0.50710    1.000
    O109     O        0.65580    0.73810    0.39050    1.000
    O110     O        0.73880    0.70490    0.42520    1.000
    O111     O        0.74990    0.76620    0.55650    1.000
    O112     O        0.52190    0.67560    0.50720    1.000
    O113     O        0.71720    0.61610    0.38760    1.000
    O114     O        0.53870    0.64040    0.60420    1.000
    O115     O        0.65870    0.69640    0.63640    1.000
    O116     O        0.78950    0.68760    0.51300    1.000
    O117     O        0.70110    0.78280    0.46680    1.000
    O118     O        0.53270    0.77090    0.51850    1.000
    O119     O        0.57790    0.56190    0.56090    1.000
    O120     O        0.57640    0.72990    0.60310    1.000
    O121     O        0.61410    0.72510    0.49470    1.000
    O122     O        0.71890    0.69390    0.31770    1.000
    O123     O        0.63260    0.65030    0.35280    1.000
    O124     O        0.70760    0.60020    0.58420    1.000
    N49      N        0.04990    0.50390    0.28160    1.000
    N50      N        0.25190    0.57550    0.48470    1.000
    N51      N        0.82280    0.76700    0.71540    1.000
    N52      N        0.11220    0.53910    0.32350    1.000
    N53      N        0.90330    0.76250    0.71390    1.000
    N54      N        0.41200    0.44280    0.19380    1.000
    N55      N        0.32420    0.58460    0.52170    1.000
    N56      N        0.72570    0.43510    0.71810    1.000
    N57      N        0.74470    0.71110    0.77140    1.000
    N58      N        0.73980    0.63180    0.77830    1.000
    N59      N        0.68030    0.79720    0.77200    1.000
    N60      N        0.42850    0.57390    0.36350    1.000
    N61      N        0.59930    0.80050    0.77750    1.000
    N62      N        0.40150    0.41420    0.11310    1.000
    N63      N        0.73710    0.35570    0.71720    1.000
    N64      N        0.41640    0.59470    0.44780    1.000
    C145     C        0.08050    0.50370    0.31910    1.000
    H121     H        0.08050    0.47840    0.34360    1.000
    C146     C        0.10600    0.56900    0.28400    1.000
    H122     H        0.12060    0.59890    0.27590    1.000
    C147     C        0.06640    0.54080    0.25300    1.000
    H123     H        0.05550    0.54860    0.21950    1.000
    C148     C        0.66930    0.79830    0.82210    1.000
    H124     H        0.69180    0.79770    0.84990    1.000
    C149     C        0.61740    0.80080    0.82810    1.000
    H125     H        0.59960    0.80230    0.85960    1.000
    C150     C        0.53400    0.78950    0.71530    1.000
    H126     H        0.55670    0.77740    0.69100    1.000
    C151     C        0.51490    0.79680    0.80040    1.000
    H127     H        0.52320    0.79930    0.83610    1.000
    C152     C        0.76480    0.69600    0.81810    1.000
    H128     H        0.77860    0.71690    0.84300    1.000
    C153     C        0.14710    0.54850    0.36810    1.000
    C154     C        0.15700    0.59440    0.38250    1.000
    H129     H        0.14030    0.62010    0.36650    1.000
    C155     C        0.19290    0.60410    0.42250    1.000
    H130     H        0.20100    0.63580    0.43190    1.000
    C156     C        0.76230    0.64680    0.82400    1.000
    H131     H        0.77320    0.62790    0.85230    1.000
    C157     C        0.24520    0.60300    0.53100    1.000
    H132     H        0.21590    0.61470    0.54490    1.000
    C158     C        0.88760    0.74030    0.66970    1.000
    H133     H        0.90680    0.72600    0.64340    1.000
    C159     C        0.39570    0.37670    0.14910    1.000
    H134     H        0.38800    0.34460    0.14070    1.000
    C160     C        0.17140    0.50900    0.39120    1.000
    H135     H        0.16540    0.47730    0.37980    1.000
    C161     C        0.96190    0.76780    0.78630    1.000
    H136     H        0.93640    0.76820    0.81080    1.000
    C162     C        0.72610    0.54600    0.80230    1.000
    H137     H        0.72310    0.55450    0.83790    1.000
    C163     C        0.20400    0.51810    0.43110    1.000
    H138     H        0.21910    0.49220    0.44840    1.000
    C164     C        0.42460    0.62340    0.36560    1.000
    H139     H        0.42660    0.64430    0.33660    1.000
    C165     C        0.41760    0.63720    0.41580    1.000
    H140     H        0.41400    0.66910    0.42770    1.000
    C166     C        0.73300    0.52010    0.69680    1.000
    H141     H        0.73380    0.51110    0.66120    1.000
    C167     C        0.83810    0.74270    0.67120    1.000
    H142     H        0.81740    0.72970    0.64550    1.000
    C168     C        0.44340    0.46260    0.28150    1.000
    H143     H        0.45670    0.43150    0.28440    1.000
    C169     C        0.29180    0.60900    0.55160    1.000
    H144     H        0.29950    0.62720    0.58160    1.000
    C170     C        0.70640    0.41840    0.67140    1.000
    H145     H        0.69140    0.43700    0.64510    1.000
    C171     C        0.42000    0.47660    0.23570    1.000
    C172     C        0.95260    0.76690    0.73340    1.000
    C173     C        0.63900    0.79620    0.74640    1.000
    H146     H        0.63710    0.79280    0.70970    1.000
    C174     C        0.30010    0.56490    0.48230    1.000
    H147     H        0.31450    0.54590    0.45600    1.000
    C175     C        0.98920    0.76790    0.69730    1.000
    H148     H        0.98180    0.76880    0.66130    1.000
    C176     C        0.74310    0.39600    0.74390    1.000
    H149     H        0.75780    0.39740    0.77720    1.000
    C177     C        0.72280    0.49780    0.78640    1.000
    H150     H        0.71680    0.47360    0.81140    1.000
    C178     C        0.40210    0.52480    0.23010    1.000
    H151     H        0.38760    0.53480    0.19860    1.000
    C179     C        0.73650    0.56900    0.71110    1.000
    H152     H        0.74050    0.59280    0.68520    1.000
    C180     C        0.42850    0.54170    0.31920    1.000
    C181     C        0.42340    0.55900    0.41550    1.000
    H153     H        0.42490    0.52660    0.42620    1.000
    C182     C        0.40340    0.39480    0.19930    1.000
    H154     H        0.40270    0.37720    0.23080    1.000
    C183     C        0.73130    0.67070    0.74850    1.000
    H155     H        0.71730    0.66930    0.71480    1.000
    C184     C        0.72830    0.48590    0.73510    1.000
    C185     C        0.86290    0.77880    0.73960    1.000
    H156     H        0.86390    0.79640    0.77110    1.000
    C186     C        0.73410    0.58190    0.76330    1.000
    C187     C        0.54800    0.79980    0.76430    1.000
    C188     C        0.71350    0.36950    0.67100    1.000
    H157     H        0.70400    0.34850    0.64390    1.000
    C189     C        0.44730    0.49570    0.32390    1.000
    H158     H        0.46270    0.48630    0.35520    1.000
    C190     C        0.40990    0.45310    0.14110    1.000
    H159     H        0.41400    0.48410    0.12680    1.000
    C191     C        0.21470    0.56520    0.44610    1.000
    C192     C        0.40650    0.55670    0.27230    1.000
    H160     H        0.39480    0.58840    0.26920    1.000
    W49      W        0.80842    0.18004    0.37671    1.000
    W50      W        0.96315    0.11341    0.53433    1.000
    W51      W        0.79258    0.23779    0.60850    1.000
    W52      W        0.85398    0.06979    0.58063    1.000
    W53      W        0.74388    0.24410    0.48514    1.000
    W54      W        0.91081    0.28482    0.56031    1.000
    W55      W        0.86244    0.29073    0.43633    1.000
    W56      W        0.96766    0.22758    0.45735    1.000
    W57      W        0.73976    0.13691    0.55339    1.000
    W58      W        0.91386    0.11718    0.39832    1.000
    W59      W        0.80367    0.07355    0.44417    1.000
    W60      W        0.90560    0.17014    0.63622    1.000
    Co9      Co       0.09850    0.08938    0.52931    1.000
    Co10     Co       0.74887    0.28379    0.74240    1.000
    P5       P        0.85548    0.17911    0.50565    1.000
    O125     O        0.84730    0.15150    0.45350    1.000
    O126     O        0.01960    0.08610    0.53600    1.000
    O127     O        0.77410    0.26740    0.66470    1.000
    O128     O        0.80540    0.19350    0.52910    1.000
    O129     O        0.87580    0.10660    0.63920    1.000
    O130     O        0.84390    0.27740    0.58460    1.000
    O131     O        0.75760    0.10390    0.48960    1.000
    O132     O        0.94080    0.09800    0.46490    1.000
    O133     O        0.86460    0.06760    0.40610    1.000
    O134     O        0.88300    0.14630    0.54520    1.000
    O135     O        0.94420    0.17850    0.41080    1.000
    O136     O        0.93040    0.27550    0.42070    1.000
    O137     O        0.88490    0.31990    0.50030    1.000
    O138     O        0.74770    0.18350    0.60910    1.000
    O139     O        0.83830    0.05660    0.50710    1.000
    O140     O        0.84420    0.23810    0.39050    1.000
    O141     O        0.76120    0.20490    0.42520    1.000
    O142     O        0.75010    0.26620    0.55650    1.000
    O143     O        0.97810    0.17560    0.50720    1.000
    O144     O        0.78280    0.11610    0.38760    1.000
    O145     O        0.96130    0.14040    0.60420    1.000
    O146     O        0.84130    0.19640    0.63640    1.000
    O147     O        0.71050    0.18760    0.51300    1.000
    O148     O        0.79890    0.28280    0.46680    1.000
    O149     O        0.96730    0.27090    0.51850    1.000
    O150     O        0.92210    0.06190    0.56090    1.000
    O151     O        0.92360    0.22990    0.60310    1.000
    O152     O        0.88590    0.22510    0.49470    1.000
    O153     O        0.78110    0.19390    0.31770    1.000
    O154     O        0.86740    0.15030    0.35280    1.000
    O155     O        0.79240    0.10020    0.58420    1.000
    N65      N        0.45010    0.00390    0.28160    1.000
    N66      N        0.24810    0.07550    0.48470    1.000
    N67      N        0.67720    0.26700    0.71540    1.000
    N68      N        0.38780    0.03910    0.32350    1.000
    N69      N        0.59670    0.26250    0.71390    1.000
    N70      N        0.08800    0.94280    0.19380    1.000
    N71      N        0.17580    0.08460    0.52170    1.000
    N72      N        0.77430    0.93510    0.71810    1.000
    N73      N        0.75530    0.21110    0.77140    1.000
    N74      N        0.76020    0.13180    0.77830    1.000
    N75      N        0.81970    0.29720    0.77200    1.000
    N76      N        0.07150    0.07390    0.36350    1.000
    N77      N        0.90070    0.30050    0.77750    1.000
    N78      N        0.09850    0.91420    0.11310    1.000
    N79      N        0.76290    0.85570    0.71720    1.000
    N80      N        0.08360    0.09470    0.44780    1.000
    C193     C        0.41950    0.00370    0.31910    1.000
    H161     H        0.41950    0.97840    0.34360    1.000
    C194     C        0.39400    0.06900    0.28400    1.000
    H162     H        0.37940    0.09890    0.27590    1.000
    C195     C        0.43360    0.04080    0.25300    1.000
    H163     H        0.44450    0.04860    0.21950    1.000
    C196     C        0.83070    0.29830    0.82210    1.000
    H164     H        0.80820    0.29770    0.84990    1.000
    C197     C        0.88260    0.30080    0.82810    1.000
    H165     H        0.90040    0.30230    0.85960    1.000
    C198     C        0.96600    0.28950    0.71530    1.000
    H166     H        0.94330    0.27740    0.69100    1.000
    C199     C        0.98510    0.29680    0.80040    1.000
    H167     H        0.97680    0.29930    0.83610    1.000
    C200     C        0.73520    0.19600    0.81810    1.000
    H168     H        0.72140    0.21690    0.84300    1.000
    C201     C        0.35290    0.04850    0.36810    1.000
    C202     C        0.34300    0.09440    0.38250    1.000
    H169     H        0.35970    0.12010    0.36650    1.000
    C203     C        0.30710    0.10410    0.42250    1.000
    H170     H        0.29900    0.13580    0.43190    1.000
    C204     C        0.73770    0.14680    0.82400    1.000
    H171     H        0.72680    0.12790    0.85230    1.000
    C205     C        0.25480    0.10300    0.53100    1.000
    H172     H        0.28410    0.11470    0.54490    1.000
    C206     C        0.61240    0.24030    0.66970    1.000
    H173     H        0.59320    0.22600    0.64340    1.000
    C207     C        0.10430    0.87670    0.14910    1.000
    H174     H        0.11200    0.84460    0.14070    1.000
    C208     C        0.32860    0.00900    0.39120    1.000
    H175     H        0.33460    0.97730    0.37980    1.000
    C209     C        0.53810    0.26780    0.78630    1.000
    H176     H        0.56360    0.26820    0.81080    1.000
    C210     C        0.77390    0.04600    0.80230    1.000
    H177     H        0.77690    0.05450    0.83790    1.000
    C211     C        0.29600    0.01810    0.43110    1.000
    H178     H        0.28090    0.99220    0.44840    1.000
    C212     C        0.07540    0.12340    0.36560    1.000
    H179     H        0.07340    0.14430    0.33660    1.000
    C213     C        0.08240    0.13720    0.41580    1.000
    H180     H        0.08600    0.16910    0.42770    1.000
    C214     C        0.76700    0.02010    0.69680    1.000
    H181     H        0.76620    0.01110    0.66120    1.000
    C215     C        0.66190    0.24270    0.67120    1.000
    H182     H        0.68260    0.22970    0.64550    1.000
    C216     C        0.05660    0.96260    0.28150    1.000
    H183     H        0.04330    0.93150    0.28440    1.000
    C217     C        0.20820    0.10900    0.55160    1.000
    H184     H        0.20050    0.12720    0.58160    1.000
    C218     C        0.79360    0.91840    0.67140    1.000
    H185     H        0.80860    0.93700    0.64510    1.000
    C219     C        0.08000    0.97660    0.23570    1.000
    C220     C        0.54740    0.26690    0.73340    1.000
    C221     C        0.86100    0.29620    0.74640    1.000
    H186     H        0.86290    0.29280    0.70970    1.000
    C222     C        0.19990    0.06490    0.48230    1.000
    H187     H        0.18550    0.04590    0.45600    1.000
    C223     C        0.51080    0.26790    0.69730    1.000
    H188     H        0.51820    0.26880    0.66130    1.000
    C224     C        0.75690    0.89600    0.74390    1.000
    H189     H        0.74220    0.89740    0.77720    1.000
    C225     C        0.77720    0.99780    0.78640    1.000
    H190     H        0.78320    0.97360    0.81140    1.000
    C226     C        0.09790    0.02480    0.23010    1.000
    H191     H        0.11240    0.03480    0.19860    1.000
    C227     C        0.76350    0.06900    0.71110    1.000
    H192     H        0.75950    0.09280    0.68520    1.000
    C228     C        0.07150    0.04170    0.31920    1.000
    C229     C        0.07660    0.05900    0.41550    1.000
    H193     H        0.07510    0.02660    0.42620    1.000
    C230     C        0.09660    0.89480    0.19930    1.000
    H194     H        0.09730    0.87720    0.23080    1.000
    C231     C        0.76870    0.17070    0.74850    1.000
    H195     H        0.78270    0.16930    0.71480    1.000
    C232     C        0.77170    0.98590    0.73510    1.000
    C233     C        0.63710    0.27880    0.73960    1.000
    H196     H        0.63610    0.29640    0.77110    1.000
    C234     C        0.76590    0.08190    0.76330    1.000
    C235     C        0.95200    0.29980    0.76430    1.000
    C236     C        0.78650    0.86950    0.67100    1.000
    H197     H        0.79600    0.84850    0.64390    1.000
    C237     C        0.05270    0.99570    0.32390    1.000
    H198     H        0.03730    0.98630    0.35520    1.000
    C238     C        0.09010    0.95310    0.14110    1.000
    H199     H        0.08600    0.98410    0.12680    1.000
    C239     C        0.28530    0.06520    0.44610    1.000
    C240     C        0.09350    0.05670    0.27230    1.000
    H200     H        0.10520    0.08840    0.26920    1.000
    W61      W        0.69158    0.31996    0.87671    1.000
    W62      W        0.53685    0.38659    0.03433    1.000
    W63      W        0.70742    0.26221    0.10850    1.000
    W64      W        0.64602    0.43021    0.08063    1.000
    W65      W        0.75612    0.25590    0.98514    1.000
    W66      W        0.58919    0.21518    0.06031    1.000
    W67      W        0.63756    0.20927    0.93633    1.000
    W68      W        0.53234    0.27242    0.95735    1.000
    W69      W        0.76024    0.36309    0.05339    1.000
    W70      W        0.58614    0.38282    0.89832    1.000
    W71      W        0.69633    0.42645    0.94417    1.000
    W72      W        0.59440    0.32986    0.13622    1.000
    Co11     Co       0.40150    0.41062    0.02931    1.000
    Co12     Co       0.75113    0.21621    0.24240    1.000
    P6       P        0.64452    0.32089    0.00565    1.000
    O156     O        0.65270    0.34850    0.95350    1.000
    O157     O        0.48040    0.41390    0.03600    1.000
    O158     O        0.72590    0.23260    0.16470    1.000
    O159     O        0.69460    0.30650    0.02910    1.000
    O160     O        0.62420    0.39340    0.13920    1.000
    O161     O        0.65610    0.22260    0.08460    1.000
    O162     O        0.74240    0.39610    0.98960    1.000
    O163     O        0.55920    0.40200    0.96490    1.000
    O164     O        0.63540    0.43240    0.90610    1.000
    O165     O        0.61700    0.35370    0.04520    1.000
    O166     O        0.55580    0.32150    0.91080    1.000
    O167     O        0.56960    0.22450    0.92070    1.000
    O168     O        0.61510    0.18010    0.00030    1.000
    O169     O        0.75230    0.31650    0.10910    1.000
    O170     O        0.66170    0.44340    0.00710    1.000
    O171     O        0.65580    0.26190    0.89050    1.000
    O172     O        0.73880    0.29510    0.92520    1.000
    O173     O        0.74990    0.23380    0.05650    1.000
    O174     O        0.52190    0.32440    0.00720    1.000
    O175     O        0.71720    0.38390    0.88760    1.000
    O176     O        0.53870    0.35960    0.10420    1.000
    O177     O        0.65870    0.30360    0.13640    1.000
    O178     O        0.78950    0.31240    0.01300    1.000
    O179     O        0.70110    0.21720    0.96680    1.000
    O180     O        0.53270    0.22910    0.01850    1.000
    O181     O        0.57790    0.43810    0.06090    1.000
    O182     O        0.57640    0.27010    0.10310    1.000
    O183     O        0.61410    0.27490    0.99470    1.000
    O184     O        0.71890    0.30610    0.81770    1.000
    O185     O        0.63260    0.34970    0.85280    1.000
    O186     O        0.70760    0.39980    0.08420    1.000
    N81      N        0.04990    0.49610    0.78160    1.000
    N82      N        0.25190    0.42450    0.98470    1.000
    N83      N        0.82280    0.23300    0.21540    1.000
    N84      N        0.11220    0.46090    0.82350    1.000
    N85      N        0.90330    0.23750    0.21390    1.000
    N86      N        0.41200    0.55720    0.69380    1.000
    N87      N        0.32420    0.41540    0.02170    1.000
    N88      N        0.72570    0.56490    0.21810    1.000
    N89      N        0.74470    0.28890    0.27140    1.000
    N90      N        0.73980    0.36820    0.27830    1.000
    N91      N        0.68030    0.20280    0.27200    1.000
    N92      N        0.42850    0.42610    0.86350    1.000
    N93      N        0.59930    0.19950    0.27750    1.000
    N94      N        0.40150    0.58580    0.61310    1.000
    N95      N        0.73710    0.64430    0.21720    1.000
    N96      N        0.41640    0.40530    0.94780    1.000
    C241     C        0.08050    0.49630    0.81910    1.000
    H201     H        0.08050    0.52160    0.84360    1.000
    C242     C        0.10600    0.43100    0.78400    1.000
    H202     H        0.12060    0.40110    0.77590    1.000
    C243     C        0.06640    0.45920    0.75300    1.000
    H203     H        0.05550    0.45140    0.71950    1.000
    C244     C        0.66930    0.20170    0.32210    1.000
    H204     H        0.69180    0.20230    0.34990    1.000
    C245     C        0.61740    0.19920    0.32810    1.000
    H205     H        0.59960    0.19770    0.35960    1.000
    C246     C        0.53400    0.21050    0.21530    1.000
    H206     H        0.55670    0.22260    0.19100    1.000
    C247     C        0.51490    0.20320    0.30040    1.000
    H207     H        0.52320    0.20070    0.33610    1.000
    C248     C        0.76480    0.30400    0.31810    1.000
    H208     H        0.77860    0.28310    0.34300    1.000
    C249     C        0.14710    0.45150    0.86810    1.000
    C250     C        0.15700    0.40560    0.88250    1.000
    H209     H        0.14030    0.37990    0.86650    1.000
    C251     C        0.19290    0.39590    0.92250    1.000
    H210     H        0.20100    0.36420    0.93190    1.000
    C252     C        0.76230    0.35320    0.32400    1.000
    H211     H        0.77320    0.37210    0.35230    1.000
    C253     C        0.24520    0.39700    0.03100    1.000
    H212     H        0.21590    0.38530    0.04490    1.000
    C254     C        0.88760    0.25970    0.16970    1.000
    H213     H        0.90680    0.27400    0.14340    1.000
    C255     C        0.39570    0.62330    0.64910    1.000
    H214     H        0.38800    0.65540    0.64070    1.000
    C256     C        0.17140    0.49100    0.89120    1.000
    H215     H        0.16540    0.52270    0.87980    1.000
    C257     C        0.96190    0.23220    0.28630    1.000
    H216     H        0.93640    0.23180    0.31080    1.000
    C258     C        0.72610    0.45400    0.30230    1.000
    H217     H        0.72310    0.44550    0.33790    1.000
    C259     C        0.20400    0.48190    0.93110    1.000
    H218     H        0.21910    0.50780    0.94840    1.000
    C260     C        0.42460    0.37660    0.86560    1.000
    H219     H        0.42660    0.35570    0.83660    1.000
    C261     C        0.41760    0.36280    0.91580    1.000
    H220     H        0.41400    0.33090    0.92770    1.000
    C262     C        0.73300    0.47990    0.19680    1.000
    H221     H        0.73380    0.48890    0.16120    1.000
    C263     C        0.83810    0.25730    0.17120    1.000
    H222     H        0.81740    0.27030    0.14550    1.000
    C264     C        0.44340    0.53740    0.78150    1.000
    H223     H        0.45670    0.56850    0.78440    1.000
    C265     C        0.29180    0.39100    0.05160    1.000
    H224     H        0.29950    0.37280    0.08160    1.000
    C266     C        0.70640    0.58160    0.17140    1.000
    H225     H        0.69140    0.56300    0.14510    1.000
    C267     C        0.42000    0.52340    0.73570    1.000
    C268     C        0.95260    0.23310    0.23340    1.000
    C269     C        0.63900    0.20380    0.24640    1.000
    H226     H        0.63710    0.20720    0.20970    1.000
    C270     C        0.30010    0.43510    0.98230    1.000
    H227     H        0.31450    0.45410    0.95600    1.000
    C271     C        0.98920    0.23210    0.19730    1.000
    H228     H        0.98180    0.23120    0.16130    1.000
    C272     C        0.74310    0.60400    0.24390    1.000
    H229     H        0.75780    0.60260    0.27720    1.000
    C273     C        0.72280    0.50220    0.28640    1.000
    H230     H        0.71680    0.52640    0.31140    1.000
    C274     C        0.40210    0.47520    0.73010    1.000
    H231     H        0.38760    0.46520    0.69860    1.000
    C275     C        0.73650    0.43100    0.21110    1.000
    H232     H        0.74050    0.40720    0.18520    1.000
    C276     C        0.42850    0.45830    0.81920    1.000
    C277     C        0.42340    0.44100    0.91550    1.000
    H233     H        0.42490    0.47340    0.92620    1.000
    C278     C        0.40340    0.60520    0.69930    1.000
    H234     H        0.40270    0.62280    0.73080    1.000
    C279     C        0.73130    0.32930    0.24850    1.000
    H235     H        0.71730    0.33070    0.21480    1.000
    C280     C        0.72830    0.51410    0.23510    1.000
    C281     C        0.86290    0.22120    0.23960    1.000
    H236     H        0.86390    0.20360    0.27110    1.000
    C282     C        0.73410    0.41810    0.26330    1.000
    C283     C        0.54800    0.20020    0.26430    1.000
    C284     C        0.71350    0.63050    0.17100    1.000
    H237     H        0.70400    0.65150    0.14390    1.000
    C285     C        0.44730    0.50430    0.82390    1.000
    H238     H        0.46270    0.51370    0.85520    1.000
    C286     C        0.40990    0.54690    0.64110    1.000
    H239     H        0.41400    0.51590    0.62680    1.000
    C287     C        0.21470    0.43480    0.94610    1.000
    C288     C        0.40650    0.44330    0.77230    1.000
    H240     H        0.39480    0.41160    0.76920    1.000
    W73      W        0.19158    0.18004    0.12329    1.000
    W74      W        0.03685    0.11341    0.96567    1.000
    W75      W        0.20742    0.23779    0.89150    1.000
    W76      W        0.14602    0.06979    0.91937    1.000
    W77      W        0.25612    0.24410    0.01486    1.000
    W78      W        0.08919    0.28482    0.93969    1.000
    W79      W        0.13756    0.29073    0.06367    1.000
    W80      W        0.03234    0.22758    0.04265    1.000
    W81      W        0.26024    0.13691    0.94661    1.000
    W82      W        0.08614    0.11718    0.10168    1.000
    W83      W        0.19633    0.07355    0.05583    1.000
    W84      W        0.09440    0.17014    0.86378    1.000
    Co13     Co       0.90150    0.08938    0.97069    1.000
    Co14     Co       0.25113    0.28379    0.75760    1.000
    P7       P        0.14452    0.17911    0.99435    1.000
    O187     O        0.15270    0.15150    0.04650    1.000
    O188     O        0.98040    0.08610    0.96400    1.000
    O189     O        0.22590    0.26740    0.83530    1.000
    O190     O        0.19460    0.19350    0.97090    1.000
    O191     O        0.12420    0.10660    0.86080    1.000
    O192     O        0.15610    0.27740    0.91540    1.000
    O193     O        0.24240    0.10390    0.01040    1.000
    O194     O        0.05920    0.09800    0.03510    1.000
    O195     O        0.13540    0.06760    0.09390    1.000
    O196     O        0.11700    0.14630    0.95480    1.000
    O197     O        0.05580    0.17850    0.08920    1.000
    O198     O        0.06960    0.27550    0.07930    1.000
    O199     O        0.11510    0.31990    0.99970    1.000
    O200     O        0.25230    0.18350    0.89090    1.000
    O201     O        0.16170    0.05660    0.99290    1.000
    O202     O        0.15580    0.23810    0.10950    1.000
    O203     O        0.23880    0.20490    0.07480    1.000
    O204     O        0.24990    0.26620    0.94350    1.000
    O205     O        0.02190    0.17560    0.99280    1.000
    O206     O        0.21720    0.11610    0.11240    1.000
    O207     O        0.03870    0.14040    0.89580    1.000
    O208     O        0.15870    0.19640    0.86360    1.000
    O209     O        0.28950    0.18760    0.98700    1.000
    O210     O        0.20110    0.28280    0.03320    1.000
    O211     O        0.03270    0.27090    0.98150    1.000
    O212     O        0.07790    0.06190    0.93910    1.000
    O213     O        0.07640    0.22990    0.89690    1.000
    O214     O        0.11410    0.22510    0.00530    1.000
    O215     O        0.21890    0.19390    0.18230    1.000
    O216     O        0.13260    0.15030    0.14720    1.000
    O217     O        0.20760    0.10020    0.91580    1.000
    N97      N        0.54990    0.00390    0.21840    1.000
    N98      N        0.75190    0.07550    0.01530    1.000
    N99      N        0.32280    0.26700    0.78460    1.000
    N100     N        0.61220    0.03910    0.17650    1.000
    N101     N        0.40330    0.26250    0.78610    1.000
    N102     N        0.91200    0.94280    0.30620    1.000
    N103     N        0.82420    0.08460    0.97830    1.000
    N104     N        0.22570    0.93510    0.78190    1.000
    N105     N        0.24470    0.21110    0.72860    1.000
    N106     N        0.23980    0.13180    0.72170    1.000
    N107     N        0.18030    0.29720    0.72800    1.000
    N108     N        0.92850    0.07390    0.13650    1.000
    N109     N        0.09930    0.30050    0.72250    1.000
    N110     N        0.90150    0.91420    0.38690    1.000
    N111     N        0.23710    0.85570    0.78280    1.000
    N112     N        0.91640    0.09470    0.05220    1.000
    C289     C        0.58050    0.00370    0.18090    1.000
    H241     H        0.58050    0.97840    0.15640    1.000
    C290     C        0.60600    0.06900    0.21600    1.000
    H242     H        0.62060    0.09890    0.22410    1.000
    C291     C        0.56640    0.04080    0.24700    1.000
    H243     H        0.55550    0.04860    0.28050    1.000
    C292     C        0.16930    0.29830    0.67790    1.000
    H244     H        0.19180    0.29770    0.65010    1.000
    C293     C        0.11740    0.30080    0.67190    1.000
    H245     H        0.09960    0.30230    0.64040    1.000
    C294     C        0.03400    0.28950    0.78470    1.000
    H246     H        0.05670    0.27740    0.80900    1.000
    C295     C        0.01490    0.29680    0.69960    1.000
    H247     H        0.02320    0.29930    0.66390    1.000
    C296     C        0.26480    0.19600    0.68190    1.000
    H248     H        0.27860    0.21690    0.65700    1.000
    C297     C        0.64710    0.04850    0.13190    1.000
    C298     C        0.65700    0.09440    0.11750    1.000
    H249     H        0.64030    0.12010    0.13350    1.000
    C299     C        0.69290    0.10410    0.07750    1.000
    H250     H        0.70100    0.13580    0.06810    1.000
    C300     C        0.26230    0.14680    0.67600    1.000
    H251     H        0.27320    0.12790    0.64770    1.000
    C301     C        0.74520    0.10300    0.96900    1.000
    H252     H        0.71590    0.11470    0.95510    1.000
    C302     C        0.38760    0.24030    0.83030    1.000
    H253     H        0.40680    0.22600    0.85660    1.000
    C303     C        0.89570    0.87670    0.35090    1.000
    H254     H        0.88800    0.84460    0.35930    1.000
    C304     C        0.67140    0.00900    0.10880    1.000
    H255     H        0.66540    0.97730    0.12020    1.000
    C305     C        0.46190    0.26780    0.71370    1.000
    H256     H        0.43640    0.26820    0.68920    1.000
    C306     C        0.22610    0.04600    0.69770    1.000
    H257     H        0.22310    0.05450    0.66210    1.000
    C307     C        0.70400    0.01810    0.06890    1.000
    H258     H        0.71910    0.99220    0.05160    1.000
    C308     C        0.92460    0.12340    0.13440    1.000
    H259     H        0.92660    0.14430    0.16340    1.000
    C309     C        0.91760    0.13720    0.08420    1.000
    H260     H        0.91400    0.16910    0.07230    1.000
    C310     C        0.23300    0.02010    0.80320    1.000
    H261     H        0.23380    0.01110    0.83880    1.000
    C311     C        0.33810    0.24270    0.82880    1.000
    H262     H        0.31740    0.22970    0.85450    1.000
    C312     C        0.94340    0.96260    0.21850    1.000
    H263     H        0.95670    0.93150    0.21560    1.000
    C313     C        0.79180    0.10900    0.94840    1.000
    H264     H        0.79950    0.12720    0.91840    1.000
    C314     C        0.20640    0.91840    0.82860    1.000
    H265     H        0.19140    0.93700    0.85490    1.000
    C315     C        0.92000    0.97660    0.26430    1.000
    C316     C        0.45260    0.26690    0.76660    1.000
    C317     C        0.13900    0.29620    0.75360    1.000
    H266     H        0.13710    0.29280    0.79030    1.000
    C318     C        0.80010    0.06490    0.01770    1.000
    H267     H        0.81450    0.04590    0.04400    1.000
    C319     C        0.48920    0.26790    0.80270    1.000
    H268     H        0.48180    0.26880    0.83870    1.000
    C320     C        0.24310    0.89600    0.75610    1.000
    H269     H        0.25780    0.89740    0.72280    1.000
    C321     C        0.22280    0.99780    0.71360    1.000
    H270     H        0.21680    0.97360    0.68860    1.000
    C322     C        0.90210    0.02480    0.26990    1.000
    H271     H        0.88760    0.03480    0.30140    1.000
    C323     C        0.23650    0.06900    0.78890    1.000
    H272     H        0.24050    0.09280    0.81480    1.000
    C324     C        0.92850    0.04170    0.18080    1.000
    C325     C        0.92340    0.05900    0.08450    1.000
    H273     H        0.92490    0.02660    0.07380    1.000
    C326     C        0.90340    0.89480    0.30070    1.000
    H274     H        0.90270    0.87720    0.26920    1.000
    C327     C        0.23130    0.17070    0.75150    1.000
    H275     H        0.21730    0.16930    0.78520    1.000
    C328     C        0.22830    0.98590    0.76490    1.000
    C329     C        0.36290    0.27880    0.76040    1.000
    H276     H        0.36390    0.29640    0.72890    1.000
    C330     C        0.23410    0.08190    0.73670    1.000
    C331     C        0.04800    0.29980    0.73570    1.000
    C332     C        0.21350    0.86950    0.82900    1.000
    H277     H        0.20400    0.84850    0.85610    1.000
    C333     C        0.94730    0.99570    0.17610    1.000
    H278     H        0.96270    0.98630    0.14480    1.000
    C334     C        0.90990    0.95310    0.35890    1.000
    H279     H        0.91400    0.98410    0.37320    1.000
    C335     C        0.71470    0.06520    0.05390    1.000
    C336     C        0.90650    0.05670    0.22770    1.000
    H280     H        0.89480    0.08840    0.23080    1.000
    W85      W        0.30842    0.31996    0.62329    1.000
    W86      W        0.46315    0.38659    0.46567    1.000
    W87      W        0.29258    0.26221    0.39150    1.000
    W88      W        0.35398    0.43021    0.41937    1.000
    W89      W        0.24388    0.25590    0.51486    1.000
    W90      W        0.41081    0.21518    0.43969    1.000
    W91      W        0.36244    0.20927    0.56367    1.000
    W92      W        0.46766    0.27242    0.54265    1.000
    W93      W        0.23976    0.36309    0.44661    1.000
    W94      W        0.41386    0.38282    0.60168    1.000
    W95      W        0.30367    0.42645    0.55583    1.000
    W96      W        0.40560    0.32986    0.36378    1.000
    Co15     Co       0.59850    0.41062    0.47069    1.000
    Co16     Co       0.24887    0.21621    0.25760    1.000
    P8       P        0.35548    0.32089    0.49435    1.000
    O218     O        0.34730    0.34850    0.54650    1.000
    O219     O        0.51960    0.41390    0.46400    1.000
    O220     O        0.27410    0.23260    0.33530    1.000
    O221     O        0.30540    0.30650    0.47090    1.000
    O222     O        0.37580    0.39340    0.36080    1.000
    O223     O        0.34390    0.22260    0.41540    1.000
    O224     O        0.25760    0.39610    0.51040    1.000
    O225     O        0.44080    0.40200    0.53510    1.000
    O226     O        0.36460    0.43240    0.59390    1.000
    O227     O        0.38300    0.35370    0.45480    1.000
    O228     O        0.44420    0.32150    0.58920    1.000
    O229     O        0.43040    0.22450    0.57930    1.000
    O230     O        0.38490    0.18010    0.49970    1.000
    O231     O        0.24770    0.31650    0.39090    1.000
    O232     O        0.33830    0.44340    0.49290    1.000
    O233     O        0.34420    0.26190    0.60950    1.000
    O234     O        0.26120    0.29510    0.57480    1.000
    O235     O        0.25010    0.23380    0.44350    1.000
    O236     O        0.47810    0.32440    0.49280    1.000
    O237     O        0.28280    0.38390    0.61240    1.000
    O238     O        0.46130    0.35960    0.39580    1.000
    O239     O        0.34130    0.30360    0.36360    1.000
    O240     O        0.21050    0.31240    0.48700    1.000
    O241     O        0.29890    0.21720    0.53320    1.000
    O242     O        0.46730    0.22910    0.48150    1.000
    O243     O        0.42210    0.43810    0.43910    1.000
    O244     O        0.42360    0.27010    0.39690    1.000
    O245     O        0.38590    0.27490    0.50530    1.000
    O246     O        0.28110    0.30610    0.68230    1.000
    O247     O        0.36740    0.34970    0.64720    1.000
    O248     O        0.29240    0.39980    0.41580    1.000
    N113     N        0.95010    0.49610    0.71840    1.000
    N114     N        0.74810    0.42450    0.51530    1.000
    N115     N        0.17720    0.23300    0.28460    1.000
    N116     N        0.88780    0.46090    0.67650    1.000
    N117     N        0.09670    0.23750    0.28610    1.000
    N118     N        0.58800    0.55720    0.80620    1.000
    N119     N        0.67580    0.41540    0.47830    1.000
    N120     N        0.27430    0.56490    0.28190    1.000
    N121     N        0.25530    0.28890    0.22860    1.000
    N122     N        0.26020    0.36820    0.22170    1.000
    N123     N        0.31970    0.20280    0.22800    1.000
    N124     N        0.57150    0.42610    0.63650    1.000
    N125     N        0.40070    0.19950    0.22250    1.000
    N126     N        0.59850    0.58580    0.88690    1.000
    N127     N        0.26290    0.64430    0.28280    1.000
    N128     N        0.58360    0.40530    0.55220    1.000
    C337     C        0.91950    0.49630    0.68090    1.000
    H281     H        0.91950    0.52160    0.65640    1.000
    C338     C        0.89400    0.43100    0.71600    1.000
    H282     H        0.87940    0.40110    0.72410    1.000
    C339     C        0.93360    0.45920    0.74700    1.000
    H283     H        0.94450    0.45140    0.78050    1.000
    C340     C        0.33070    0.20170    0.17790    1.000
    H284     H        0.30820    0.20230    0.15010    1.000
    C341     C        0.38260    0.19920    0.17190    1.000
    H285     H        0.40040    0.19770    0.14040    1.000
    C342     C        0.46600    0.21050    0.28470    1.000
    H286     H        0.44330    0.22260    0.30900    1.000
    C343     C        0.48510    0.20320    0.19960    1.000
    H287     H        0.47680    0.20070    0.16390    1.000
    C344     C        0.23520    0.30400    0.18190    1.000
    H288     H        0.22140    0.28310    0.15700    1.000
    C345     C        0.85290    0.45150    0.63190    1.000
    C346     C        0.84300    0.40560    0.61750    1.000
    H289     H        0.85970    0.37990    0.63350    1.000
    C347     C        0.80710    0.39590    0.57750    1.000
    H290     H        0.79900    0.36420    0.56810    1.000
    C348     C        0.23770    0.35320    0.17600    1.000
    H291     H        0.22680    0.37210    0.14770    1.000
    C349     C        0.75480    0.39700    0.46900    1.000
    H292     H        0.78410    0.38530    0.45510    1.000
    C350     C        0.11240    0.25970    0.33030    1.000
    H293     H        0.09320    0.27400    0.35660    1.000
    C351     C        0.60430    0.62330    0.85090    1.000
    H294     H        0.61200    0.65540    0.85930    1.000
    C352     C        0.82860    0.49100    0.60880    1.000
    H295     H        0.83460    0.52270    0.62020    1.000
    C353     C        0.03810    0.23220    0.21370    1.000
    H296     H        0.06360    0.23180    0.18920    1.000
    C354     C        0.27390    0.45400    0.19770    1.000
    H297     H        0.27690    0.44550    0.16210    1.000
    C355     C        0.79600    0.48190    0.56890    1.000
    H298     H        0.78090    0.50780    0.55160    1.000
    C356     C        0.57540    0.37660    0.63440    1.000
    H299     H        0.57340    0.35570    0.66340    1.000
    C357     C        0.58240    0.36280    0.58420    1.000
    H300     H        0.58600    0.33090    0.57230    1.000
    C358     C        0.26700    0.47990    0.30320    1.000
    H301     H        0.26620    0.48890    0.33880    1.000
    C359     C        0.16190    0.25730    0.32880    1.000
    H302     H        0.18260    0.27030    0.35450    1.000
    C360     C        0.55660    0.53740    0.71850    1.000
    H303     H        0.54330    0.56850    0.71560    1.000
    C361     C        0.70820    0.39100    0.44840    1.000
    H304     H        0.70050    0.37280    0.41840    1.000
    C362     C        0.29360    0.58160    0.32860    1.000
    H305     H        0.30860    0.56300    0.35490    1.000
    C363     C        0.58000    0.52340    0.76430    1.000
    C364     C        0.04740    0.23310    0.26660    1.000
    C365     C        0.36100    0.20380    0.25360    1.000
    H306     H        0.36290    0.20720    0.29030    1.000
    C366     C        0.69990    0.43510    0.51770    1.000
    H307     H        0.68550    0.45410    0.54400    1.000
    C367     C        0.01080    0.23210    0.30270    1.000
    H308     H        0.01820    0.23120    0.33870    1.000
    C368     C        0.25690    0.60400    0.25610    1.000
    H309     H        0.24220    0.60260    0.22280    1.000
    C369     C        0.27720    0.50220    0.21360    1.000
    H310     H        0.28320    0.52640    0.18860    1.000
    C370     C        0.59790    0.47520    0.76990    1.000
    H311     H        0.61240    0.46520    0.80140    1.000
    C371     C        0.26350    0.43100    0.28890    1.000
    H312     H        0.25950    0.40720    0.31480    1.000
    C372     C        0.57150    0.45830    0.68080    1.000
    C373     C        0.57660    0.44100    0.58450    1.000
    H313     H        0.57510    0.47340    0.57380    1.000
    C374     C        0.59660    0.60520    0.80070    1.000
    H314     H        0.59730    0.62280    0.76920    1.000
    C375     C        0.26870    0.32930    0.25150    1.000
    H315     H        0.28270    0.33070    0.28520    1.000
    C376     C        0.27170    0.51410    0.26490    1.000
    C377     C        0.13710    0.22120    0.26040    1.000
    H316     H        0.13610    0.20360    0.22890    1.000
    C378     C        0.26590    0.41810    0.23670    1.000
    C379     C        0.45200    0.20020    0.23570    1.000
    C380     C        0.28650    0.63050    0.32900    1.000
    H317     H        0.29600    0.65150    0.35610    1.000
    C381     C        0.55270    0.50430    0.67610    1.000
    H318     H        0.53730    0.51370    0.64480    1.000
    C382     C        0.59010    0.54690    0.85890    1.000
    H319     H        0.58600    0.51590    0.87320    1.000
    C383     C        0.78530    0.43480    0.55390    1.000
    C384     C        0.59350    0.44330    0.72770    1.000
    H320     H        0.60520    0.41160    0.73080    1.000
    Co17     Co       0.50000    0.04720    0.75000    1.000
    Co18     Co       0.00000    0.45280    0.25000    1.000
    Co19     Co       0.50000    0.95280    0.25000    1.000
    Co20     Co       0.00000    0.54720    0.75000    1.000
