# CIF file generated by openbabel 3.1.0, see https://openbabel.org
data_I
_chemical_name_common 'image0'
_cell_length_a 8.5627
_cell_length_b 14.078
_cell_length_c 20.297
_cell_angle_alpha 88.568
_cell_angle_beta 86.325
_cell_angle_gamma 81.382
_space_group_name_H-M_alt 'P 1'
_space_group_name_Hall 'P 1'
loop_
    _symmetry_equiv_pos_as_xyz
    x,y,z
loop_
    _atom_site_label
    _atom_site_type_symbol
    _atom_site_fract_x
    _atom_site_fract_y
    _atom_site_fract_z
    _atom_site_occupancy
    Tb1      Tb       0.27365    0.76272    0.98096    1.000
    Tb2      Tb       0.23516    0.48561    0.24797    1.000
    O1       O        0.21270    0.67510    0.07920    1.000
    O2       O        0.19000    0.54220    0.13580    1.000
    O3       O        0.44010    0.41750    0.17520    1.000
    O4       O        0.58950    0.31130    0.11400    1.000
    O5       O        0.06420    0.68840    0.94330    1.000
    O6       O        0.80790    0.69980    0.92010    1.000
    O7       O        0.25520    0.89110    0.06470    1.000
    O8       O        0.11140    0.98970    0.13640    1.000
    O9       O        0.52560    0.74660    0.02920    1.000
    O10      O        0.50000    0.85570    0.94930    1.000
    O11      O        0.82870    0.11930    0.09470    1.000
    O12      O        0.69840    0.03650    0.17430    1.000
    O13      O        0.27390    0.53620    0.35570    1.000
    O14      O        0.22400    0.66410    0.41770    1.000
    O15      O        0.02810    0.68160    0.61370    1.000
    O16      O        0.95530    0.56230    0.67520    1.000
    N1       N        0.40040    0.58560    0.98800    1.000
    N2       N        0.07210    0.57430    0.50830    1.000
    N3       N        0.99960    0.83600    0.02290    1.000
    N4       N        0.69460    0.92410    0.05650    1.000
    C1       C        0.25210    0.58660    0.09150    1.000
    C2       C        0.39000    0.53740    0.04640    1.000
    C3       C        0.49210    0.45390    0.06080    1.000
    C4       C        0.50700    0.38860    0.12160    1.000
    C5       C        0.13000    0.93270    0.09090    1.000
    C6       C        0.97600    0.91240    0.06290    1.000
    C7       C        0.82200    0.95470    0.07600    1.000
    C8       C        0.72100    0.84920    0.01630    1.000
    C9       C        0.86500    0.80250    0.99690    1.000
    C10      C        0.92100    0.71910    0.95200    1.000
    C11      C        0.77900    0.04430    0.12030    1.000
    C12      C        0.57400    0.81380    0.99730    1.000
    C13      C        0.20400    0.58120    0.40190    1.000
    C14      C        0.08800    0.53830    0.45300    1.000
    C15      C        0.98010    0.54770    0.55800    1.000
    C16      C        0.98600    0.60160    0.62230    1.000
    Tb3      Tb       0.11784    0.76033    0.51433    1.000
    Tb4      Tb       0.21131    0.02985    0.24113    1.000
    O17      O        0.45730    0.00750    0.29130    1.000
    O18      O        0.55980    0.09180    0.36670    1.000
    O19      O        0.07690    0.88570    0.43250    1.000
    O20      O        0.14860    0.99970    0.36330    1.000
    O21      O        0.36490    0.69330    0.55710    1.000
    O22      O        0.62050    0.68270    0.56680    1.000
    O23      O        0.84580    0.84220    0.54580    1.000
    O24      O        0.87310    0.74030    0.45920    1.000
    N5       N        0.35680    0.83290    0.47230    1.000
    N6       N        0.62280    0.91570    0.43110    1.000
    C17      C        0.49100    0.02310    0.35330    1.000
    C18      C        0.47800    0.94400    0.40650    1.000
    C19      C        0.34600    0.90220    0.42720    1.000
    C20      C        0.49800    0.80010    0.49490    1.000
    C21      C        0.62600    0.83950    0.47470    1.000
    C22      C        0.78800    0.80680    0.49760    1.000
    C23      C        0.49700    0.71700    0.54390    1.000
    C24      C        0.17700    0.93320    0.40230    1.000
    Tb5      Tb       0.72635    0.23728    0.01904    1.000
    Tb6      Tb       0.76484    0.51439    0.75203    1.000
    O25      O        0.78730    0.32490    0.92080    1.000
    O26      O        0.81000    0.45780    0.86420    1.000
    O27      O        0.55990    0.58250    0.82480    1.000
    O28      O        0.41050    0.68870    0.88600    1.000
    O29      O        0.93580    0.31160    0.05670    1.000
    O30      O        0.19210    0.30020    0.07990    1.000
    O31      O        0.74480    0.10890    0.93530    1.000
    O32      O        0.88860    0.01030    0.86360    1.000
    O33      O        0.47440    0.25340    0.97080    1.000
    O34      O        0.50000    0.14430    0.05070    1.000
    O35      O        0.17130    0.88070    0.90530    1.000
    O36      O        0.30160    0.96350    0.82570    1.000
    O37      O        0.72610    0.46380    0.64430    1.000
    O38      O        0.77600    0.33590    0.58230    1.000
    O39      O        0.97190    0.31840    0.38630    1.000
    O40      O        0.04470    0.43770    0.32480    1.000
    N7       N        0.59960    0.41440    0.01200    1.000
    N8       N        0.92790    0.42570    0.49170    1.000
    N9       N        0.00040    0.16400    0.97710    1.000
    N10      N        0.30540    0.07590    0.94350    1.000
    C25      C        0.74790    0.41340    0.90850    1.000
    C26      C        0.61000    0.46260    0.95360    1.000
    C27      C        0.50790    0.54610    0.93920    1.000
    C28      C        0.49300    0.61140    0.87840    1.000
    C29      C        0.87000    0.06730    0.90910    1.000
    C30      C        0.02400    0.08760    0.93710    1.000
    C31      C        0.17800    0.04530    0.92400    1.000
    C32      C        0.27900    0.15080    0.98370    1.000
    C33      C        0.13500    0.19750    0.00310    1.000
    C34      C        0.07900    0.28090    0.04800    1.000
    C35      C        0.22100    0.95570    0.87970    1.000
    C36      C        0.42600    0.18620    0.00270    1.000
    C37      C        0.79600    0.41880    0.59810    1.000
    C38      C        0.91200    0.46170    0.54700    1.000
    C39      C        0.01990    0.45230    0.44200    1.000
    C40      C        0.01400    0.39840    0.37770    1.000
    Tb7      Tb       0.88216    0.23967    0.48567    1.000
    Tb8      Tb       0.78869    0.97015    0.75887    1.000
    O41      O        0.54270    0.99250    0.70870    1.000
    O42      O        0.44020    0.90820    0.63330    1.000
    O43      O        0.92310    0.11430    0.56750    1.000
    O44      O        0.85140    0.00030    0.63670    1.000
    O45      O        0.63510    0.30670    0.44290    1.000
    O46      O        0.37950    0.31730    0.43320    1.000
    O47      O        0.15420    0.15780    0.45420    1.000
    O48      O        0.12690    0.25970    0.54080    1.000
    N11      N        0.64320    0.16710    0.52770    1.000
    N12      N        0.37720    0.08430    0.56890    1.000
    C41      C        0.50900    0.97690    0.64670    1.000
    C42      C        0.52200    0.05600    0.59350    1.000
    C43      C        0.65400    0.09780    0.57280    1.000
    C44      C        0.50200    0.19990    0.50510    1.000
    C45      C        0.37400    0.16050    0.52530    1.000
    C46      C        0.21200    0.19320    0.50240    1.000
    C47      C        0.50300    0.28300    0.45610    1.000
    C48      C        0.82300    0.06680    0.59770    1.000
