# CIF file generated by openbabel 3.1.0, see https://openbabel.org
data_I
_chemical_name_common 'image0'
_cell_length_a 8.5983
_cell_length_b 13.1561
_cell_length_c 13.46
_cell_angle_alpha 90
_cell_angle_beta 92.47
_cell_angle_gamma 90
_space_group_name_H-M_alt 'P 1'
_space_group_name_Hall 'P 1'
loop_
    _symmetry_equiv_pos_as_xyz
    x,y,z
loop_
    _atom_site_label
    _atom_site_type_symbol
    _atom_site_fract_x
    _atom_site_fract_y
    _atom_site_fract_z
    _atom_site_occupancy
    Be1      Be       0.57830    0.11960    0.25050    1.000
    Be2      Be       0.15620    0.99540    0.23950    1.000
    Be3      Be       0.67700    0.82620    0.40460    1.000
    P1       P        0.30853    0.13665    0.37579    1.000
    H1       H        0.29700    0.23800    0.35900    1.000
    P2       P        0.34087    0.10041    0.09261    1.000
    H2       H        0.36000    0.07300    0.99000    1.000
    P3       P        0.60424    0.34124    0.22833    1.000
    H3       H        0.53200    0.37780    0.31610    1.000
    P4       P        0.81211    0.95391    0.24883    1.000
    H4       H        0.73400    0.92000    0.16800    1.000
    O1       O        0.46310    0.09761    0.34086    1.000
    O2       O        0.50170    0.09475    0.14257    1.000
    O3       O        0.63630    0.23533    0.26471    1.000
    O4       O        0.73610    0.05449    0.27050    1.000
    O5       O        0.17110    0.09024    0.31845    1.000
    O6       O        0.22530    0.02654    0.13365    1.000
    O7       O        0.97570    0.96850    0.21888    1.000
    O8       O        0.80150    0.87857    0.33271    1.000
    O9       O        0.29740    0.11930    0.48664    1.000
    O10      O        0.27490    0.20713    0.08997    1.000
    O11      O        0.75700    0.39515    0.21216    1.000
    O12      O        0.50280    0.34341    0.13332    1.000
    Be4      Be       0.42170    0.61960    0.24950    1.000
    Be5      Be       0.84380    0.49540    0.26050    1.000
    Be6      Be       0.32300    0.32620    0.09540    1.000
    P5       P        0.69147    0.63665    0.12421    1.000
    H5       H        0.70300    0.73800    0.14100    1.000
    P6       P        0.65913    0.60041    0.40739    1.000
    H6       H        0.64000    0.57300    0.51000    1.000
    P7       P        0.39576    0.84124    0.27167    1.000
    H7       H        0.46800    0.87780    0.18390    1.000
    P8       P        0.18789    0.45391    0.25117    1.000
    H8       H        0.26600    0.42000    0.33200    1.000
    O13      O        0.53690    0.59761    0.15914    1.000
    O14      O        0.49830    0.59475    0.35743    1.000
    O15      O        0.36370    0.73533    0.23529    1.000
    O16      O        0.26390    0.55449    0.22950    1.000
    O17      O        0.82890    0.59024    0.18155    1.000
    O18      O        0.77470    0.52654    0.36635    1.000
    O19      O        0.02430    0.46850    0.28112    1.000
    O20      O        0.19850    0.37857    0.16729    1.000
    O21      O        0.70260    0.61930    0.01336    1.000
    O22      O        0.72510    0.70713    0.41003    1.000
    O23      O        0.24300    0.89515    0.28784    1.000
    O24      O        0.49720    0.84341    0.36668    1.000
    Be7      Be       0.42170    0.88040    0.74950    1.000
    Be8      Be       0.84380    0.00460    0.76050    1.000
    Be9      Be       0.32300    0.17380    0.59540    1.000
    P9       P        0.69147    0.86335    0.62421    1.000
    H9       H        0.70300    0.76200    0.64100    1.000
    P10      P        0.65913    0.89959    0.90739    1.000
    H10      H        0.64000    0.92700    0.01000    1.000
    P11      P        0.39576    0.65876    0.77167    1.000
    H11      H        0.46800    0.62220    0.68390    1.000
    P12      P        0.18789    0.04609    0.75117    1.000
    H12      H        0.26600    0.08000    0.83200    1.000
    O25      O        0.53690    0.90239    0.65914    1.000
    O26      O        0.49830    0.90525    0.85743    1.000
    O27      O        0.36370    0.76467    0.73529    1.000
    O28      O        0.26390    0.94551    0.72950    1.000
    O29      O        0.82890    0.90976    0.68155    1.000
    O30      O        0.77470    0.97346    0.86635    1.000
    O31      O        0.02430    0.03150    0.78112    1.000
    O32      O        0.19850    0.12143    0.66729    1.000
    O33      O        0.70260    0.88070    0.51336    1.000
    O34      O        0.72510    0.79287    0.91003    1.000
    O35      O        0.24300    0.60485    0.78784    1.000
    O36      O        0.49720    0.65659    0.86668    1.000
    Be10     Be       0.57830    0.38040    0.75050    1.000
    Be11     Be       0.15620    0.50460    0.73950    1.000
    Be12     Be       0.67700    0.67380    0.90460    1.000
    P13      P        0.30853    0.36335    0.87579    1.000
    H13      H        0.29700    0.26200    0.85900    1.000
    P14      P        0.34087    0.39959    0.59261    1.000
    H14      H        0.36000    0.42700    0.49000    1.000
    P15      P        0.60424    0.15876    0.72833    1.000
    H15      H        0.53200    0.12220    0.81610    1.000
    P16      P        0.81211    0.54609    0.74883    1.000
    H16      H        0.73400    0.58000    0.66800    1.000
    O37      O        0.46310    0.40239    0.84086    1.000
    O38      O        0.50170    0.40525    0.64257    1.000
    O39      O        0.63630    0.26467    0.76471    1.000
    O40      O        0.73610    0.44551    0.77050    1.000
    O41      O        0.17110    0.40976    0.81845    1.000
    O42      O        0.22530    0.47346    0.63365    1.000
    O43      O        0.97570    0.53150    0.71888    1.000
    O44      O        0.80150    0.62143    0.83271    1.000
    O45      O        0.29740    0.38070    0.98664    1.000
    O46      O        0.27490    0.29287    0.58997    1.000
    O47      O        0.75700    0.10485    0.71216    1.000
    O48      O        0.50280    0.15659    0.63332    1.000
