# CIF file generated by openbabel 3.1.0, see https://openbabel.org
data_I
_chemical_name_common 'image0'
_cell_length_a 15.217
_cell_length_b 9.8509
_cell_length_c 18.2741
_cell_angle_alpha 90
_cell_angle_beta 102.036
_cell_angle_gamma 90
_space_group_name_H-M_alt 'P 1'
_space_group_name_Hall 'P 1'
loop_
    _symmetry_equiv_pos_as_xyz
    x,y,z
loop_
    _atom_site_label
    _atom_site_type_symbol
    _atom_site_fract_x
    _atom_site_fract_y
    _atom_site_fract_z
    _atom_site_occupancy
    Zn1      Zn       0.21360    0.44449    0.03534    1.000
    O1       O        0.09974    0.34120    0.02796    1.000
    O2       O        0.07380    0.87470    0.57872    1.000
    O3       O        0.21854    0.92800    0.62005    1.000
    O4       O        0.20981    0.55040    0.94403    1.000
    O5       O        0.30410    0.30960    0.08889    1.000
    O6       O        0.16060    0.23310    0.94350    1.000
    O7       O        0.05978    0.56740    0.91526    1.000
    O8       O        0.38602    0.44150    0.03364    1.000
    C1       C        0.10580    0.23720    0.98450    1.000
    C2       C        0.04800    0.11720    0.99130    1.000
    C3       C        0.00910    0.10280    0.05250    1.000
    H1       H        0.01520    0.17300    0.08880    1.000
    C4       C        0.96140    0.98670    0.06140    1.000
    H2       H        0.93480    0.97770    0.10380    1.000
    C5       C        0.14570    0.87200    0.62660    1.000
    C6       C        0.14570    0.79570    0.69810    1.000
    C7       C        0.13590    0.58510    0.90200    1.000
    C8       C        0.14030    0.65650    0.83040    1.000
    C9       C        0.06200    0.68510    0.77890    1.000
    H3       H        0.00600    0.65790    0.78930    1.000
    C10      C        0.06370    0.75220    0.71310    1.000
    H4       H        0.00930    0.76900    0.67800    1.000
    C11      C        0.22160    0.69760    0.81440    1.000
    H5       H        0.27620    0.67730    0.84840    1.000
    C12      C        0.22350    0.76760    0.74920    1.000
    H6       H        0.27950    0.79690    0.73960    1.000
    C13      C        0.37750    0.34440    0.07470    1.000
    H7       H        0.42950    0.29390    0.09650    1.000
    Zn2      Zn       0.78640    0.94449    0.46466    1.000
    O9       O        0.90026    0.84120    0.47204    1.000
    O10      O        0.92620    0.37470    0.92128    1.000
    O11      O        0.78146    0.42800    0.87995    1.000
    O12      O        0.79019    0.05040    0.55597    1.000
    O13      O        0.69590    0.80960    0.41111    1.000
    O14      O        0.83940    0.73310    0.55650    1.000
    O15      O        0.94022    0.06740    0.58474    1.000
    O16      O        0.61398    0.94150    0.46636    1.000
    C14      C        0.89420    0.73720    0.51550    1.000
    C15      C        0.95200    0.61720    0.50870    1.000
    C16      C        0.99090    0.60280    0.44750    1.000
    H8       H        0.98480    0.67300    0.41120    1.000
    C17      C        0.03860    0.48670    0.43860    1.000
    H9       H        0.06520    0.47770    0.39620    1.000
    C18      C        0.85430    0.37200    0.87340    1.000
    C19      C        0.85430    0.29570    0.80190    1.000
    C20      C        0.86410    0.08510    0.59800    1.000
    C21      C        0.85970    0.15650    0.66960    1.000
    C22      C        0.93800    0.18510    0.72110    1.000
    H10      H        0.99400    0.15790    0.71070    1.000
    C23      C        0.93630    0.25220    0.78690    1.000
    H11      H        0.99070    0.26900    0.82200    1.000
    C24      C        0.77840    0.19760    0.68560    1.000
    H12      H        0.72380    0.17730    0.65160    1.000
    C25      C        0.77650    0.26760    0.75080    1.000
    H13      H        0.72050    0.29690    0.76040    1.000
    C26      C        0.62250    0.84440    0.42530    1.000
    H14      H        0.57050    0.79390    0.40350    1.000
    Zn3      Zn       0.78640    0.55551    0.96466    1.000
    O17      O        0.90026    0.65880    0.97204    1.000
    O18      O        0.92620    0.12530    0.42128    1.000
    O19      O        0.78146    0.07200    0.37995    1.000
    O20      O        0.79019    0.44960    0.05597    1.000
    O21      O        0.69590    0.69040    0.91111    1.000
    O22      O        0.83940    0.76690    0.05650    1.000
    O23      O        0.94022    0.43260    0.08474    1.000
    O24      O        0.61398    0.55850    0.96636    1.000
    C27      C        0.89420    0.76280    0.01550    1.000
    C28      C        0.95200    0.88280    0.00870    1.000
    C29      C        0.99090    0.89720    0.94750    1.000
    H15      H        0.98480    0.82700    0.91120    1.000
    C30      C        0.03860    0.01330    0.93860    1.000
    H16      H        0.06520    0.02230    0.89620    1.000
    C31      C        0.85430    0.12800    0.37340    1.000
    C32      C        0.85430    0.20430    0.30190    1.000
    C33      C        0.86410    0.41490    0.09800    1.000
    C34      C        0.85970    0.34350    0.16960    1.000
    C35      C        0.93800    0.31490    0.22110    1.000
    H17      H        0.99400    0.34210    0.21070    1.000
    C36      C        0.93630    0.24780    0.28690    1.000
    H18      H        0.99070    0.23100    0.32200    1.000
    C37      C        0.77840    0.30240    0.18560    1.000
    H19      H        0.72380    0.32270    0.15160    1.000
    C38      C        0.77650    0.23240    0.25080    1.000
    H20      H        0.72050    0.20310    0.26040    1.000
    C39      C        0.62250    0.65560    0.92530    1.000
    H21      H        0.57050    0.70610    0.90350    1.000
    Zn4      Zn       0.21360    0.05551    0.53534    1.000
    O25      O        0.09974    0.15880    0.52796    1.000
    O26      O        0.07380    0.62530    0.07872    1.000
    O27      O        0.21854    0.57200    0.12005    1.000
    O28      O        0.20981    0.94960    0.44403    1.000
    O29      O        0.30410    0.19040    0.58889    1.000
    O30      O        0.16060    0.26690    0.44350    1.000
    O31      O        0.05978    0.93260    0.41526    1.000
    O32      O        0.38602    0.05850    0.53364    1.000
    C40      C        0.10580    0.26280    0.48450    1.000
    C41      C        0.04800    0.38280    0.49130    1.000
    C42      C        0.00910    0.39720    0.55250    1.000
    H22      H        0.01520    0.32700    0.58880    1.000
    C43      C        0.96140    0.51330    0.56140    1.000
    H23      H        0.93480    0.52230    0.60380    1.000
    C44      C        0.14570    0.62800    0.12660    1.000
    C45      C        0.14570    0.70430    0.19810    1.000
    C46      C        0.13590    0.91490    0.40200    1.000
    C47      C        0.14030    0.84350    0.33040    1.000
    C48      C        0.06200    0.81490    0.27890    1.000
    H24      H        0.00600    0.84210    0.28930    1.000
    C49      C        0.06370    0.74780    0.21310    1.000
    H25      H        0.00930    0.73100    0.17800    1.000
    C50      C        0.22160    0.80240    0.31440    1.000
    H26      H        0.27620    0.82270    0.34840    1.000
    C51      C        0.22350    0.73240    0.24920    1.000
    H27      H        0.27950    0.70310    0.23960    1.000
    C52      C        0.37750    0.15560    0.57470    1.000
    H28      H        0.42950    0.20610    0.59650    1.000
    Zn5      Zn       0.00000    0.50000    0.00000    1.000
    Zn6      Zn       0.00000    0.00000    0.50000    1.000
    Zn7      Zn       0.50000    0.50000    0.00000    1.000
    Zn8      Zn       0.50000    0.00000    0.50000    1.000
