# CIF file generated by openbabel 3.1.0, see https://openbabel.org
data_I
_chemical_name_common 'image0'
_cell_length_a 18.263
_cell_length_b 6.852
_cell_length_c 9.564
_cell_angle_alpha 90
_cell_angle_beta 90
_cell_angle_gamma 90
_space_group_name_H-M_alt 'P 1'
_space_group_name_Hall 'P 1'
loop_
    _symmetry_equiv_pos_as_xyz
    x,y,z
loop_
    _atom_site_label
    _atom_site_type_symbol
    _atom_site_fract_x
    _atom_site_fract_y
    _atom_site_fract_z
    _atom_site_occupancy
    O1       O        0.07650    0.59250    0.24400    1.000
    O2       O        0.17100    0.39500    0.09100    1.000
    O3       O        0.05350    0.90600    0.58550    1.000
    C1       C        0.20750    0.57450    0.09300    1.000
    C2       C        0.27500    0.57100    0.02200    1.000
    O4       O        0.42350    0.40750    0.74400    1.000
    O5       O        0.32900    0.60500    0.59100    1.000
    O6       O        0.44650    0.09400    0.08550    1.000
    C3       C        0.29250    0.42550    0.59300    1.000
    C4       C        0.22500    0.42900    0.52200    1.000
    O7       O        0.92350    0.09250    0.75600    1.000
    O8       O        0.82900    0.89500    0.90900    1.000
    O9       O        0.94650    0.40600    0.41450    1.000
    C5       C        0.79250    0.07450    0.90700    1.000
    C6       C        0.72500    0.07100    0.97800    1.000
    O10      O        0.57650    0.90750    0.25600    1.000
    O11      O        0.67100    0.10500    0.40900    1.000
    O12      O        0.55350    0.59400    0.91450    1.000
    C7       C        0.70750    0.92550    0.40700    1.000
    C8       C        0.77500    0.92900    0.47800    1.000
    O13      O        0.92350    0.40750    0.75600    1.000
    O14      O        0.82900    0.60500    0.90900    1.000
    O15      O        0.94650    0.09400    0.41450    1.000
    C9       C        0.79250    0.42550    0.90700    1.000
    C10      C        0.72500    0.42900    0.97800    1.000
    O16      O        0.57650    0.59250    0.25600    1.000
    O17      O        0.67100    0.39500    0.40900    1.000
    O18      O        0.55350    0.90600    0.91450    1.000
    C11      C        0.70750    0.57450    0.40700    1.000
    C12      C        0.77500    0.57100    0.47800    1.000
    O19      O        0.07650    0.90750    0.24400    1.000
    O20      O        0.17100    0.10500    0.09100    1.000
    O21      O        0.05350    0.59400    0.58550    1.000
    C13      C        0.20750    0.92550    0.09300    1.000
    C14      C        0.27500    0.92900    0.02200    1.000
    O22      O        0.42350    0.09250    0.74400    1.000
    O23      O        0.32900    0.89500    0.59100    1.000
    O24      O        0.44650    0.40600    0.08550    1.000
    C15      C        0.29250    0.07450    0.59300    1.000
    C16      C        0.22500    0.07100    0.52200    1.000
    Ca1      Ca       0.98050    0.75000    0.39420    1.000
    N1       N        0.37800    0.75000    0.91700    1.000
    C17      C        0.10500    0.75000    0.20900    1.000
    C18      C        0.17400    0.75000    0.12700    1.000
    C19      C        0.30700    0.75000    0.98000    1.000
    C20      C        0.07300    0.75000    0.63900    1.000
    C21      C        0.12600    0.75000    0.76700    1.000
    Ca2      Ca       0.51950    0.25000    0.89420    1.000
    N2       N        0.12200    0.25000    0.41700    1.000
    C22      C        0.39500    0.25000    0.70900    1.000
    C23      C        0.32600    0.25000    0.62700    1.000
    C24      C        0.19300    0.25000    0.48000    1.000
    C25      C        0.42700    0.25000    0.13900    1.000
    C26      C        0.37400    0.25000    0.26700    1.000
    Ca3      Ca       0.01950    0.25000    0.60580    1.000
    N3       N        0.62200    0.25000    0.08300    1.000
    C27      C        0.89500    0.25000    0.79100    1.000
    C28      C        0.82600    0.25000    0.87300    1.000
    C29      C        0.69300    0.25000    0.02000    1.000
    C30      C        0.92700    0.25000    0.36100    1.000
    C31      C        0.87400    0.25000    0.23300    1.000
    Ca4      Ca       0.48050    0.75000    0.10580    1.000
    N4       N        0.87800    0.75000    0.58300    1.000
    C32      C        0.60500    0.75000    0.29100    1.000
    C33      C        0.67400    0.75000    0.37300    1.000
    C34      C        0.80700    0.75000    0.52000    1.000
    C35      C        0.57300    0.75000    0.86100    1.000
    C36      C        0.62600    0.75000    0.73300    1.000
