# CIF file generated by openbabel 3.1.0, see https://openbabel.org
data_I
_chemical_name_common 'image0'
_cell_length_a 21.859
_cell_length_b 11.6653
_cell_length_c 7.3751
_cell_angle_alpha 90
_cell_angle_beta 100.301
_cell_angle_gamma 90
_space_group_name_H-M_alt 'P 1'
_space_group_name_Hall 'P 1'
loop_
    _symmetry_equiv_pos_as_xyz
    x,y,z
loop_
    _atom_site_label
    _atom_site_type_symbol
    _atom_site_fract_x
    _atom_site_fract_y
    _atom_site_fract_z
    _atom_site_occupancy
    O1       O        0.07661    0.01780    0.86860    1.000
    O2       O        0.04754    0.86470    0.01310    1.000
    C1       C        0.08510    0.92160    0.94450    1.000
    C2       C        0.14920    0.87160    0.94570    1.000
    C3       C        0.18770    0.90740    0.83750    1.000
    H1       H        0.17630    0.96850    0.75790    1.000
    C4       C        0.24710    0.85280    0.84170    1.000
    H2       H        0.27200    0.88260    0.76320    1.000
    C5       C        0.26890    0.76840    0.94110    1.000
    C6       C        0.17060    0.78420    0.05530    1.000
    H3       H        0.14540    0.75530    0.13370    1.000
    O3       O        0.92339    0.01780    0.63140    1.000
    O4       O        0.95246    0.86470    0.48690    1.000
    C7       C        0.91490    0.92160    0.55550    1.000
    C8       C        0.85080    0.87160    0.55430    1.000
    C9       C        0.81230    0.90740    0.66250    1.000
    H4       H        0.82370    0.96850    0.74210    1.000
    C10      C        0.75290    0.85280    0.65830    1.000
    H5       H        0.72800    0.88260    0.73680    1.000
    C11      C        0.73110    0.76840    0.55890    1.000
    C12      C        0.82940    0.78420    0.44470    1.000
    H6       H        0.85460    0.75530    0.36630    1.000
    O5       O        0.42339    0.48220    0.13140    1.000
    O6       O        0.45246    0.63530    0.98690    1.000
    C13      C        0.41490    0.57840    0.05550    1.000
    C14      C        0.35080    0.62840    0.05430    1.000
    C15      C        0.31230    0.59260    0.16250    1.000
    H7       H        0.32370    0.53150    0.24210    1.000
    C16      C        0.25290    0.64720    0.15830    1.000
    H8       H        0.22800    0.61740    0.23680    1.000
    C17      C        0.23110    0.73160    0.05890    1.000
    C18      C        0.32940    0.71580    0.94470    1.000
    H9       H        0.35460    0.74470    0.86630    1.000
    O7       O        0.57661    0.48220    0.36860    1.000
    O8       O        0.54754    0.63530    0.51310    1.000
    C19      C        0.58510    0.57840    0.44450    1.000
    C20      C        0.64920    0.62840    0.44570    1.000
    C21      C        0.68770    0.59260    0.33750    1.000
    H10      H        0.67630    0.53150    0.25790    1.000
    C22      C        0.74710    0.64720    0.34170    1.000
    H11      H        0.77200    0.61740    0.26320    1.000
    C23      C        0.76890    0.73160    0.44110    1.000
    C24      C        0.67060    0.71580    0.55530    1.000
    H12      H        0.64540    0.74470    0.63370    1.000
    Zn1      Zn       0.00000    0.11603    0.75000    1.000
    Zn2      Zn       0.50000    0.38397    0.25000    1.000
    O9       O        0.57661    0.51780    0.86860    1.000
    O10      O        0.54754    0.36470    0.01310    1.000
    C25      C        0.58510    0.42160    0.94450    1.000
    C26      C        0.64920    0.37160    0.94570    1.000
    C27      C        0.68770    0.40740    0.83750    1.000
    H13      H        0.67630    0.46850    0.75790    1.000
    C28      C        0.74710    0.35280    0.84170    1.000
    H14      H        0.77200    0.38260    0.76320    1.000
    C29      C        0.76890    0.26840    0.94110    1.000
    C30      C        0.67060    0.28420    0.05530    1.000
    H15      H        0.64540    0.25530    0.13370    1.000
    O11      O        0.42339    0.51780    0.63140    1.000
    O12      O        0.45246    0.36470    0.48690    1.000
    C31      C        0.41490    0.42160    0.55550    1.000
    C32      C        0.35080    0.37160    0.55430    1.000
    C33      C        0.31230    0.40740    0.66250    1.000
    H16      H        0.32370    0.46850    0.74210    1.000
    C34      C        0.25290    0.35280    0.65830    1.000
    H17      H        0.22800    0.38260    0.73680    1.000
    C35      C        0.23110    0.26840    0.55890    1.000
    C36      C        0.32940    0.28420    0.44470    1.000
    H18      H        0.35460    0.25530    0.36630    1.000
    O13      O        0.92339    0.98220    0.13140    1.000
    O14      O        0.95246    0.13530    0.98690    1.000
    C37      C        0.91490    0.07840    0.05550    1.000
    C38      C        0.85080    0.12840    0.05430    1.000
    C39      C        0.81230    0.09260    0.16250    1.000
    H19      H        0.82370    0.03150    0.24210    1.000
    C40      C        0.75290    0.14720    0.15830    1.000
    H20      H        0.72800    0.11740    0.23680    1.000
    C41      C        0.73110    0.23160    0.05890    1.000
    C42      C        0.82940    0.21580    0.94470    1.000
    H21      H        0.85460    0.24470    0.86630    1.000
    O15      O        0.07661    0.98220    0.36860    1.000
    O16      O        0.04754    0.13530    0.51310    1.000
    C43      C        0.08510    0.07840    0.44450    1.000
    C44      C        0.14920    0.12840    0.44570    1.000
    C45      C        0.18770    0.09260    0.33750    1.000
    H22      H        0.17630    0.03150    0.25790    1.000
    C46      C        0.24710    0.14720    0.34170    1.000
    H23      H        0.27200    0.11740    0.26320    1.000
    C47      C        0.26890    0.23160    0.44110    1.000
    C48      C        0.17060    0.21580    0.55530    1.000
    H24      H        0.14540    0.24470    0.63370    1.000
    Zn3      Zn       0.50000    0.61603    0.75000    1.000
    Zn4      Zn       0.00000    0.88397    0.25000    1.000
