# CIF file generated by openbabel 3.1.0, see https://openbabel.org
data_I
_chemical_name_common 'image0'
_cell_length_a 14.7883
_cell_length_b 19.4401
_cell_length_c 19.3386
_cell_angle_alpha 90
_cell_angle_beta 99.722
_cell_angle_gamma 90
_space_group_name_H-M_alt 'P 1'
_space_group_name_Hall 'P 1'
loop_
    _symmetry_equiv_pos_as_xyz
    x,y,z
loop_
    _atom_site_label
    _atom_site_type_symbol
    _atom_site_fract_x
    _atom_site_fract_y
    _atom_site_fract_z
    _atom_site_occupancy
    C1       C        0.01310    0.43090    0.30150    1.000
    C2       C        0.12050    0.53260    0.48880    1.000
    C3       C        0.31880    0.52060    0.42420    1.000
    C4       C        0.96970    0.15090    0.19910    1.000
    C5       C        0.06920    0.32530    0.24890    1.000
    H1       H        0.12370    0.34860    0.24720    1.000
    C6       C        0.99820    0.35860    0.27450    1.000
    C7       C        0.41120    0.51130    0.46270    1.000
    C8       C        0.43700    0.44910    0.49640    1.000
    H2       H        0.39300    0.41460    0.49390    1.000
    C9       C        0.97890    0.22290    0.22660    1.000
    C10      C        0.39920    0.22250    0.36230    1.000
    H3       H        0.37430    0.18030    0.37190    1.000
    C11      C        0.05900    0.25810    0.22620    1.000
    H4       H        0.10760    0.23620    0.21030    1.000
    C12      C        0.47730    0.56460    0.46710    1.000
    C13      C        0.90670    0.25510    0.25270    1.000
    C14      C        0.64650    0.49280    0.33350    1.000
    C15      C        0.52310    0.28730    0.33320    1.000
    H5       H        0.58170    0.28940    0.32180    1.000
    C16      C        0.50660    0.41810    0.32240    1.000
    C17      C        0.13910    0.37250    0.49890    1.000
    H6       H        0.18630    0.40450    0.50810    1.000
    C18      C        0.91780    0.32360    0.27640    1.000
    C19      C        0.38350    0.34520    0.35120    1.000
    H7       H        0.34880    0.38500    0.35220    1.000
    C20      C        0.00350    0.32880    0.52050    1.000
    H8       H        0.95580    0.32900    0.54620    1.000
    C21      C        0.74130    0.49260    0.35410    1.000
    H9       H        0.76890    0.45170    0.37120    1.000
    C22      C        0.53680    0.15780    0.34790    1.000
    C23      C        0.47400    0.34780    0.33650    1.000
    C24      C        0.34840    0.28120    0.36420    1.000
    C25      C        0.73290    0.99150    0.35000    1.000
    H10      H        0.74420    0.95720    0.38390    1.000
    C26      C        0.65670    0.09190    0.30670    1.000
    C27      C        0.77410    0.98910    0.29300    1.000
    H11      H        0.81470    0.95340    0.28910    1.000
    C28      C        0.48730    0.22470    0.34620    1.000
    C29      C        0.70160    0.08630    0.25040    1.000
    H12      H        0.69140    0.11980    0.21570    1.000
    C30      C        0.67390    0.04470    0.35820    1.000
    H13      H        0.64680    0.04790    0.39810    1.000
    C31      C        0.75370    0.60550    0.32610    1.000
    H14      H        0.78950    0.64430    0.32280    1.000
    C32      C        0.60550    0.55320    0.30980    1.000
    H15      H        0.54210    0.55580    0.29680    1.000
    C33      C        0.65920    0.61020    0.30520    1.000
    H16      H        0.63250    0.65150    0.28840    1.000
    C34      C        0.14220    0.32450    0.44570    1.000
    C35      C        0.06950    0.27950    0.42820    1.000
    H17      H        0.06740    0.24890    0.39100    1.000
    C36      C        0.00000    0.28170    0.46760    1.000
    H18      H        0.95100    0.25120    0.45830    1.000
    C37      C        0.25760    0.27170    0.38580    1.000
    Co1      Co       0.94135    0.54424    0.38753    1.000
    Co2      Co       0.16560    0.53489    0.34340    1.000
    H19      H        0.19600    0.53700    0.49900    1.000
    N1       N        0.07180    0.37510    0.53760    1.000
    N2       N        0.21850    0.32730    0.41060    1.000
    H20      H        0.24160    0.36700    0.40450    1.000
    N3       N        0.79500    0.54690    0.35090    1.000
    N4       N        0.59980    0.43090    0.34030    1.000
    H21      H        0.63320    0.39680    0.35770    1.000
    N5       N        0.75930    0.03490    0.24300    1.000
    N6       N        0.60070    0.15040    0.30860    1.000
    H22      H        0.60890    0.18410    0.28170    1.000
    N7       N        0.45830    0.62920    0.44010    1.000
    H23      H        0.49990    0.66060    0.44620    1.000
    H24      H        0.40470    0.63850    0.41710    1.000
    N8       N        0.84480    0.35070    0.29810    1.000
    H25      H        0.84620    0.39280    0.31210    1.000
    H26      H        0.79640    0.32630    0.29810    1.000
    N9       N        0.82560    0.22880    0.26460    1.000
    H27      H        0.81280    0.18620    0.25580    1.000
    H28      H        0.78710    0.25480    0.28100    1.000
    O1       O        0.51780    0.11070    0.38580    1.000
    O2       O        0.22320    0.21380    0.38770    1.000
    O3       O        0.45340    0.46330    0.29720    1.000
    O4       O        0.03850    0.12184    0.18018    1.000
    O5       O        0.89020    0.12408    0.19470    1.000
    O6       O        0.94800    0.46199    0.32108    1.000
    O7       O        0.09140    0.45649    0.29940    1.000
    O8       O        0.26570    0.46852    0.40791    1.000
    O9       O        0.28800    0.58022    0.40466    1.000
    O10      O        0.08540    0.54014    0.42600    1.000
    O11      O        0.08060    0.53181    0.54047    1.000
    C38      C        0.98690    0.93090    0.19850    1.000
    C39      C        0.87950    0.03260    0.01120    1.000
    C40      C        0.68120    0.02060    0.07580    1.000
    C41      C        0.03030    0.65090    0.30090    1.000
    C42      C        0.93080    0.82530    0.25110    1.000
    H29      H        0.87630    0.84860    0.25280    1.000
    C43      C        0.00180    0.85860    0.22550    1.000
    C44      C        0.58880    0.01130    0.03730    1.000
    C45      C        0.56300    0.94910    0.00360    1.000
    H30      H        0.60700    0.91460    0.00610    1.000
    C46      C        0.02110    0.72290    0.27340    1.000
    C47      C        0.60080    0.72250    0.13770    1.000
    H31      H        0.62570    0.68030    0.12810    1.000
    C48      C        0.94100    0.75810    0.27380    1.000
    H32      H        0.89240    0.73620    0.28970    1.000
    C49      C        0.52270    0.06460    0.03290    1.000
    C50      C        0.09330    0.75510    0.24730    1.000
    C51      C        0.35350    0.99280    0.16650    1.000
    C52      C        0.47690    0.78730    0.16680    1.000
    H33      H        0.41830    0.78940    0.17820    1.000
    C53      C        0.49340    0.91810    0.17760    1.000
    C54      C        0.86090    0.87250    0.00110    1.000
    H34      H        0.81370    0.90450    0.99190    1.000
    C55      C        0.08220    0.82360    0.22360    1.000
    C56      C        0.61650    0.84520    0.14880    1.000
    H35      H        0.65120    0.88500    0.14780    1.000
    C57      C        0.99650    0.82880    0.97950    1.000
    H36      H        0.04420    0.82900    0.95380    1.000
    C58      C        0.25870    0.99260    0.14590    1.000
    H37      H        0.23110    0.95170    0.12880    1.000
    C59      C        0.46320    0.65780    0.15210    1.000
    C60      C        0.52600    0.84780    0.16350    1.000
    C61      C        0.65160    0.78120    0.13580    1.000
    C62      C        0.26710    0.49150    0.15000    1.000
    H38      H        0.25580    0.45720    0.11610    1.000
    C63      C        0.34330    0.59190    0.19330    1.000
    C64      C        0.22590    0.48910    0.20700    1.000
    H39      H        0.18530    0.45340    0.21090    1.000
    C65      C        0.51270    0.72470    0.15380    1.000
    C66      C        0.29840    0.58630    0.24960    1.000
    H40      H        0.30860    0.61980    0.28430    1.000
    C67      C        0.32610    0.54470    0.14180    1.000
    H41      H        0.35320    0.54790    0.10190    1.000
    C68      C        0.24630    0.10550    0.17390    1.000
    H42      H        0.21050    0.14430    0.17720    1.000
    C69      C        0.39450    0.05320    0.19020    1.000
    H43      H        0.45790    0.05580    0.20320    1.000
    C70      C        0.34080    0.11020    0.19480    1.000
    H44      H        0.36750    0.15150    0.21160    1.000
    C71      C        0.85780    0.82450    0.05430    1.000
    C72      C        0.93050    0.77950    0.07180    1.000
    H45      H        0.93260    0.74890    0.10900    1.000
    C73      C        0.00000    0.78170    0.03240    1.000
    H46      H        0.04900    0.75120    0.04170    1.000
    C74      C        0.74240    0.77170    0.11420    1.000
    Co3      Co       0.05865    0.04424    0.11247    1.000
    Co4      Co       0.83440    0.03489    0.15660    1.000
    H47      H        0.80400    0.03700    0.00100    1.000
    N10      N        0.92820    0.87510    0.96240    1.000
    N11      N        0.78150    0.82730    0.08940    1.000
    H48      H        0.75840    0.86700    0.09550    1.000
    N12      N        0.20500    0.04690    0.14910    1.000
    N13      N        0.40020    0.93090    0.15970    1.000
    H49      H        0.36680    0.89680    0.14230    1.000
    N14      N        0.24070    0.53490    0.25700    1.000
    N15      N        0.39930    0.65040    0.19140    1.000
    H50      H        0.39110    0.68410    0.21830    1.000
    N16      N        0.54170    0.12920    0.05990    1.000
    H51      H        0.50010    0.16060    0.05380    1.000
    H52      H        0.59530    0.13850    0.08290    1.000
    N17      N        0.15520    0.85070    0.20190    1.000
    H53      H        0.15380    0.89280    0.18790    1.000
    H54      H        0.20360    0.82630    0.20190    1.000
    N18      N        0.17440    0.72880    0.23540    1.000
    H55      H        0.18720    0.68620    0.24420    1.000
    H56      H        0.21290    0.75480    0.21900    1.000
    O12      O        0.48220    0.61070    0.11420    1.000
    O13      O        0.77680    0.71380    0.11230    1.000
    O14      O        0.54660    0.96330    0.20280    1.000
    O15      O        0.96150    0.62184    0.31982    1.000
    O16      O        0.10980    0.62408    0.30530    1.000
    O17      O        0.05200    0.96199    0.17892    1.000
    O18      O        0.90860    0.95649    0.20060    1.000
    O19      O        0.73430    0.96852    0.09209    1.000
    O20      O        0.71200    0.08022    0.09534    1.000
    O21      O        0.91460    0.04014    0.07400    1.000
    O22      O        0.91940    0.03181    0.95953    1.000
    C75      C        0.98690    0.56910    0.69850    1.000
    C76      C        0.87950    0.46740    0.51120    1.000
    C77      C        0.68120    0.47940    0.57580    1.000
    C78      C        0.03030    0.84910    0.80090    1.000
    C79      C        0.93080    0.67470    0.75110    1.000
    H57      H        0.87630    0.65140    0.75280    1.000
    C80      C        0.00180    0.64140    0.72550    1.000
    C81      C        0.58880    0.48870    0.53730    1.000
    C82      C        0.56300    0.55090    0.50360    1.000
    H58      H        0.60700    0.58540    0.50610    1.000
    C83      C        0.02110    0.77710    0.77340    1.000
    C84      C        0.60080    0.77750    0.63770    1.000
    H59      H        0.62570    0.81970    0.62810    1.000
    C85      C        0.94100    0.74190    0.77380    1.000
    H60      H        0.89240    0.76380    0.78970    1.000
    C86      C        0.52270    0.43540    0.53290    1.000
    C87      C        0.09330    0.74490    0.74730    1.000
    C88      C        0.35350    0.50720    0.66650    1.000
    C89      C        0.47690    0.71270    0.66680    1.000
    H61      H        0.41830    0.71060    0.67820    1.000
    C90      C        0.49340    0.58190    0.67760    1.000
    C91      C        0.86090    0.62750    0.50110    1.000
    H62      H        0.81370    0.59550    0.49190    1.000
    C92      C        0.08220    0.67640    0.72360    1.000
    C93      C        0.61650    0.65480    0.64880    1.000
    H63      H        0.65120    0.61500    0.64780    1.000
    C94      C        0.99650    0.67120    0.47950    1.000
    H64      H        0.04420    0.67100    0.45380    1.000
    C95      C        0.25870    0.50740    0.64590    1.000
    H65      H        0.23110    0.54830    0.62880    1.000
    C96      C        0.46320    0.84220    0.65210    1.000
    C97      C        0.52600    0.65220    0.66350    1.000
    C98      C        0.65160    0.71880    0.63580    1.000
    C99      C        0.26710    0.00850    0.65000    1.000
    H66      H        0.25580    0.04280    0.61610    1.000
    C100     C        0.34330    0.90810    0.69330    1.000
    C101     C        0.22590    0.01090    0.70700    1.000
    H67      H        0.18530    0.04660    0.71090    1.000
    C102     C        0.51270    0.77530    0.65380    1.000
    C103     C        0.29840    0.91370    0.74960    1.000
    H68      H        0.30860    0.88020    0.78430    1.000
    C104     C        0.32610    0.95530    0.64180    1.000
    H69      H        0.35320    0.95210    0.60190    1.000
    C105     C        0.24630    0.39450    0.67390    1.000
    H70      H        0.21050    0.35570    0.67720    1.000
    C106     C        0.39450    0.44680    0.69020    1.000
    H71      H        0.45790    0.44420    0.70320    1.000
    C107     C        0.34080    0.38980    0.69480    1.000
    H72      H        0.36750    0.34850    0.71160    1.000
    C108     C        0.85780    0.67550    0.55430    1.000
    C109     C        0.93050    0.72050    0.57180    1.000
    H73      H        0.93260    0.75110    0.60900    1.000
    C110     C        0.00000    0.71830    0.53240    1.000
    H74      H        0.04900    0.74880    0.54170    1.000
    C111     C        0.74240    0.72830    0.61420    1.000
    Co5      Co       0.05865    0.45576    0.61247    1.000
    Co6      Co       0.83440    0.46511    0.65660    1.000
    H75      H        0.80400    0.46300    0.50100    1.000
    N19      N        0.92820    0.62490    0.46240    1.000
    N20      N        0.78150    0.67270    0.58940    1.000
    H76      H        0.75840    0.63300    0.59550    1.000
    N21      N        0.20500    0.45310    0.64910    1.000
    N22      N        0.40020    0.56910    0.65970    1.000
    H77      H        0.36680    0.60320    0.64230    1.000
    N23      N        0.24070    0.96510    0.75700    1.000
    N24      N        0.39930    0.84960    0.69140    1.000
    H78      H        0.39110    0.81590    0.71830    1.000
    N25      N        0.54170    0.37080    0.55990    1.000
    H79      H        0.50010    0.33940    0.55380    1.000
    H80      H        0.59530    0.36150    0.58290    1.000
    N26      N        0.15520    0.64930    0.70190    1.000
    H81      H        0.15380    0.60720    0.68790    1.000
    H82      H        0.20360    0.67370    0.70190    1.000
    N27      N        0.17440    0.77120    0.73540    1.000
    H83      H        0.18720    0.81380    0.74420    1.000
    H84      H        0.21290    0.74520    0.71900    1.000
    O23      O        0.48220    0.88930    0.61420    1.000
    O24      O        0.77680    0.78620    0.61230    1.000
    O25      O        0.54660    0.53670    0.70280    1.000
    O26      O        0.96150    0.87816    0.81982    1.000
    O27      O        0.10980    0.87592    0.80530    1.000
    O28      O        0.05200    0.53801    0.67892    1.000
    O29      O        0.90860    0.54351    0.70060    1.000
    O30      O        0.73430    0.53148    0.59209    1.000
    O31      O        0.71200    0.41978    0.59534    1.000
    O32      O        0.91460    0.45986    0.57400    1.000
    O33      O        0.91940    0.46819    0.45953    1.000
    C112     C        0.01310    0.06910    0.80150    1.000
    C113     C        0.12050    0.96740    0.98880    1.000
    C114     C        0.31880    0.97940    0.92420    1.000
    C115     C        0.96970    0.34910    0.69910    1.000
    C116     C        0.06920    0.17470    0.74890    1.000
    H85      H        0.12370    0.15140    0.74720    1.000
    C117     C        0.99820    0.14140    0.77450    1.000
    C118     C        0.41120    0.98870    0.96270    1.000
    C119     C        0.43700    0.05090    0.99640    1.000
    H86      H        0.39300    0.08540    0.99390    1.000
    C120     C        0.97890    0.27710    0.72660    1.000
    C121     C        0.39920    0.27750    0.86230    1.000
    H87      H        0.37430    0.31970    0.87190    1.000
    C122     C        0.05900    0.24190    0.72620    1.000
    H88      H        0.10760    0.26380    0.71030    1.000
    C123     C        0.47730    0.93540    0.96710    1.000
    C124     C        0.90670    0.24490    0.75270    1.000
    C125     C        0.64650    0.00720    0.83350    1.000
    C126     C        0.52310    0.21270    0.83320    1.000
    H89      H        0.58170    0.21060    0.82180    1.000
    C127     C        0.50660    0.08190    0.82240    1.000
    C128     C        0.13910    0.12750    0.99890    1.000
    H90      H        0.18630    0.09550    0.00810    1.000
    C129     C        0.91780    0.17640    0.77640    1.000
    C130     C        0.38350    0.15480    0.85120    1.000
    H91      H        0.34880    0.11500    0.85220    1.000
    C131     C        0.00350    0.17120    0.02050    1.000
    H92      H        0.95580    0.17100    0.04620    1.000
    C132     C        0.74130    0.00740    0.85410    1.000
    H93      H        0.76890    0.04830    0.87120    1.000
    C133     C        0.53680    0.34220    0.84790    1.000
    C134     C        0.47400    0.15220    0.83650    1.000
    C135     C        0.34840    0.21880    0.86420    1.000
    C136     C        0.73290    0.50850    0.85000    1.000
    H94      H        0.74420    0.54280    0.88390    1.000
    C137     C        0.65670    0.40810    0.80670    1.000
    C138     C        0.77410    0.51090    0.79300    1.000
    H95      H        0.81470    0.54660    0.78910    1.000
    C139     C        0.48730    0.27530    0.84620    1.000
    C140     C        0.70160    0.41370    0.75040    1.000
    H96      H        0.69140    0.38020    0.71570    1.000
    C141     C        0.67390    0.45530    0.85820    1.000
    H97      H        0.64680    0.45210    0.89810    1.000
    C142     C        0.75370    0.89450    0.82610    1.000
    H98      H        0.78950    0.85570    0.82280    1.000
    C143     C        0.60550    0.94680    0.80980    1.000
    H99      H        0.54210    0.94420    0.79680    1.000
    C144     C        0.65920    0.88980    0.80520    1.000
    H100     H        0.63250    0.84850    0.78840    1.000
    C145     C        0.14220    0.17550    0.94570    1.000
    C146     C        0.06950    0.22050    0.92820    1.000
    H101     H        0.06740    0.25110    0.89100    1.000
    C147     C        0.00000    0.21830    0.96760    1.000
    H102     H        0.95100    0.24880    0.95830    1.000
    C148     C        0.25760    0.22830    0.88580    1.000
    Co7      Co       0.94135    0.95576    0.88753    1.000
    Co8      Co       0.16560    0.96511    0.84340    1.000
    H103     H        0.19600    0.96300    0.99900    1.000
    N28      N        0.07180    0.12490    0.03760    1.000
    N29      N        0.21850    0.17270    0.91060    1.000
    H104     H        0.24160    0.13300    0.90450    1.000
    N30      N        0.79500    0.95310    0.85090    1.000
    N31      N        0.59980    0.06910    0.84030    1.000
    H105     H        0.63320    0.10320    0.85770    1.000
    N32      N        0.75930    0.46510    0.74300    1.000
    N33      N        0.60070    0.34960    0.80860    1.000
    H106     H        0.60890    0.31590    0.78170    1.000
    N34      N        0.45830    0.87080    0.94010    1.000
    H107     H        0.49990    0.83940    0.94620    1.000
    H108     H        0.40470    0.86150    0.91710    1.000
    N35      N        0.84480    0.14930    0.79810    1.000
    H109     H        0.84620    0.10720    0.81210    1.000
    H110     H        0.79640    0.17370    0.79810    1.000
    N36      N        0.82560    0.27120    0.76460    1.000
    H111     H        0.81280    0.31380    0.75580    1.000
    H112     H        0.78710    0.24520    0.78100    1.000
    O34      O        0.51780    0.38930    0.88580    1.000
    O35      O        0.22320    0.28620    0.88770    1.000
    O36      O        0.45340    0.03670    0.79720    1.000
    O37      O        0.03850    0.37816    0.68018    1.000
    O38      O        0.89020    0.37592    0.69470    1.000
    O39      O        0.94800    0.03801    0.82108    1.000
    O40      O        0.09140    0.04351    0.79940    1.000
    O41      O        0.26570    0.03148    0.90791    1.000
    O42      O        0.28800    0.91978    0.90466    1.000
    O43      O        0.08540    0.95986    0.92600    1.000
    O44      O        0.08060    0.96819    0.04047    1.000
