# CIF file generated by openbabel 3.1.0, see https://openbabel.org
data_I
_chemical_name_common 'image0'
_cell_length_a 24.8718
_cell_length_b 13.7591
_cell_length_c 13.6832
_cell_angle_alpha 90
_cell_angle_beta 98.949
_cell_angle_gamma 90
_space_group_name_H-M_alt 'P 1'
_space_group_name_Hall 'P 1'
loop_
    _symmetry_equiv_pos_as_xyz
    x,y,z
loop_
    _atom_site_label
    _atom_site_type_symbol
    _atom_site_fract_x
    _atom_site_fract_y
    _atom_site_fract_z
    _atom_site_occupancy
    Nd1      Nd       0.16993    0.21598    0.46114    1.000
    C1       C        0.07445    0.28171    0.53794    1.000
    C2       C        0.02339    0.31325    0.57545    1.000
    C3       C        0.98491    0.24410    0.59280    1.000
    H1       H        0.99210    0.17800    0.58800    1.000
    C4       C        0.93579    0.27560    0.61740    1.000
    H2       H        0.90990    0.22960    0.62790    1.000
    C5       C        0.92389    0.37343    0.62696    1.000
    C6       C        0.96297    0.44110    0.61123    1.000
    H3       H        0.95620    0.50720    0.61690    1.000
    C7       C        0.01210    0.40952    0.58702    1.000
    H4       H        0.03840    0.45540    0.57830    1.000
    C8       C        0.86872    0.40076    0.64894    1.000
    C9       C        0.84673    0.34646    0.71905    1.000
    H5       H        0.86780    0.29910    0.75530    1.000
    C10      C        0.79315    0.36262    0.73541    1.000
    C11      C        0.76212    0.43227    0.67891    1.000
    H6       H        0.72570    0.44020    0.68520    1.000
    C12      C        0.78493    0.49013    0.61314    1.000
    C13      C        0.83883    0.47531    0.59998    1.000
    H7       H        0.85460    0.51590    0.55810    1.000
    C14      C        0.77148    0.30586    0.81514    1.000
    C15      C        0.75045    0.56796    0.55919    1.000
    O1       O        0.10647    0.34469    0.51580    1.000
    O2       O        0.08320    0.19170    0.52801    1.000
    O3       O        0.77221    0.64288    0.52902    1.000
    O4       O        0.69943    0.55746    0.54456    1.000
    O5       O        0.72277    0.32574    0.82768    1.000
    O6       O        0.80151    0.24627    0.86159    1.000
    Nd2      Nd       0.66993    0.71598    0.46114    1.000
    C16      C        0.57445    0.78171    0.53794    1.000
    C17      C        0.52339    0.81325    0.57545    1.000
    C18      C        0.48491    0.74410    0.59280    1.000
    H8       H        0.49210    0.67800    0.58800    1.000
    C19      C        0.43579    0.77560    0.61740    1.000
    H9       H        0.40990    0.72960    0.62790    1.000
    C20      C        0.42389    0.87343    0.62696    1.000
    C21      C        0.46297    0.94110    0.61123    1.000
    H10      H        0.45620    0.00720    0.61690    1.000
    C22      C        0.51210    0.90952    0.58702    1.000
    H11      H        0.53840    0.95540    0.57830    1.000
    C23      C        0.36872    0.90076    0.64894    1.000
    C24      C        0.34673    0.84646    0.71905    1.000
    H12      H        0.36780    0.79910    0.75530    1.000
    C25      C        0.29315    0.86262    0.73541    1.000
    C26      C        0.26212    0.93227    0.67891    1.000
    H13      H        0.22570    0.94020    0.68520    1.000
    C27      C        0.28493    0.99013    0.61314    1.000
    C28      C        0.33883    0.97531    0.59998    1.000
    H14      H        0.35460    0.01590    0.55810    1.000
    C29      C        0.27148    0.80586    0.81514    1.000
    C30      C        0.25045    0.06796    0.55919    1.000
    O7       O        0.60647    0.84469    0.51580    1.000
    O8       O        0.58320    0.69170    0.52801    1.000
    O9       O        0.27221    0.14288    0.52902    1.000
    O10      O        0.19943    0.05746    0.54456    1.000
    O11      O        0.22277    0.82574    0.82768    1.000
    O12      O        0.30151    0.74627    0.86159    1.000
    Nd3      Nd       0.83007    0.21598    0.03886    1.000
    C31      C        0.92555    0.28171    0.96206    1.000
    C32      C        0.97661    0.31325    0.92455    1.000
    C33      C        0.01509    0.24410    0.90720    1.000
    H15      H        0.00790    0.17800    0.91200    1.000
    C34      C        0.06421    0.27560    0.88260    1.000
    H16      H        0.09010    0.22960    0.87210    1.000
    C35      C        0.07611    0.37343    0.87304    1.000
    C36      C        0.03703    0.44110    0.88877    1.000
    H17      H        0.04380    0.50720    0.88310    1.000
    C37      C        0.98790    0.40952    0.91298    1.000
    H18      H        0.96160    0.45540    0.92170    1.000
    C38      C        0.13128    0.40076    0.85106    1.000
    C39      C        0.15327    0.34646    0.78095    1.000
    H19      H        0.13220    0.29910    0.74470    1.000
    C40      C        0.20685    0.36262    0.76459    1.000
    C41      C        0.23788    0.43227    0.82109    1.000
    H20      H        0.27430    0.44020    0.81480    1.000
    C42      C        0.21507    0.49013    0.88686    1.000
    C43      C        0.16117    0.47531    0.90002    1.000
    H21      H        0.14540    0.51590    0.94190    1.000
    C44      C        0.22852    0.30586    0.68486    1.000
    C45      C        0.24955    0.56796    0.94081    1.000
    O13      O        0.89353    0.34469    0.98420    1.000
    O14      O        0.91680    0.19170    0.97199    1.000
    O15      O        0.22779    0.64288    0.97098    1.000
    O16      O        0.30057    0.55746    0.95544    1.000
    O17      O        0.27723    0.32574    0.67232    1.000
    O18      O        0.19849    0.24627    0.63841    1.000
    Nd4      Nd       0.33007    0.71598    0.03886    1.000
    C46      C        0.42555    0.78171    0.96206    1.000
    C47      C        0.47661    0.81325    0.92455    1.000
    C48      C        0.51509    0.74410    0.90720    1.000
    H22      H        0.50790    0.67800    0.91200    1.000
    C49      C        0.56421    0.77560    0.88260    1.000
    H23      H        0.59010    0.72960    0.87210    1.000
    C50      C        0.57611    0.87343    0.87304    1.000
    C51      C        0.53703    0.94110    0.88877    1.000
    H24      H        0.54380    0.00720    0.88310    1.000
    C52      C        0.48790    0.90952    0.91298    1.000
    H25      H        0.46160    0.95540    0.92170    1.000
    C53      C        0.63128    0.90076    0.85106    1.000
    C54      C        0.65327    0.84646    0.78095    1.000
    H26      H        0.63220    0.79910    0.74470    1.000
    C55      C        0.70685    0.86262    0.76459    1.000
    C56      C        0.73788    0.93227    0.82109    1.000
    H27      H        0.77430    0.94020    0.81480    1.000
    C57      C        0.71507    0.99013    0.88686    1.000
    C58      C        0.66117    0.97531    0.90002    1.000
    H28      H        0.64540    0.01590    0.94190    1.000
    C59      C        0.72852    0.80586    0.68486    1.000
    C60      C        0.74955    0.06796    0.94081    1.000
    O19      O        0.39353    0.84469    0.98420    1.000
    O20      O        0.41680    0.69170    0.97199    1.000
    O21      O        0.72779    0.14288    0.97098    1.000
    O22      O        0.80057    0.05746    0.95544    1.000
    O23      O        0.77723    0.82574    0.67232    1.000
    O24      O        0.69849    0.74627    0.63841    1.000
    Nd5      Nd       0.83007    0.78402    0.53886    1.000
    C61      C        0.92555    0.71829    0.46206    1.000
    C62      C        0.97661    0.68675    0.42455    1.000
    C63      C        0.01509    0.75590    0.40720    1.000
    H29      H        0.00790    0.82200    0.41200    1.000
    C64      C        0.06421    0.72440    0.38260    1.000
    H30      H        0.09010    0.77040    0.37210    1.000
    C65      C        0.07611    0.62657    0.37304    1.000
    C66      C        0.03703    0.55890    0.38877    1.000
    H31      H        0.04380    0.49280    0.38310    1.000
    C67      C        0.98790    0.59048    0.41298    1.000
    H32      H        0.96160    0.54460    0.42170    1.000
    C68      C        0.13128    0.59924    0.35106    1.000
    C69      C        0.15327    0.65354    0.28095    1.000
    H33      H        0.13220    0.70090    0.24470    1.000
    C70      C        0.20685    0.63738    0.26459    1.000
    C71      C        0.23788    0.56773    0.32109    1.000
    H34      H        0.27430    0.55980    0.31480    1.000
    C72      C        0.21507    0.50987    0.38686    1.000
    C73      C        0.16117    0.52469    0.40002    1.000
    H35      H        0.14540    0.48410    0.44190    1.000
    C74      C        0.22852    0.69414    0.18486    1.000
    C75      C        0.24955    0.43204    0.44081    1.000
    O25      O        0.89353    0.65531    0.48420    1.000
    O26      O        0.91680    0.80830    0.47199    1.000
    O27      O        0.22779    0.35712    0.47098    1.000
    O28      O        0.30057    0.44254    0.45544    1.000
    O29      O        0.27723    0.67426    0.17232    1.000
    O30      O        0.19849    0.75373    0.13841    1.000
    Nd6      Nd       0.33007    0.28402    0.53886    1.000
    C76      C        0.42555    0.21829    0.46206    1.000
    C77      C        0.47661    0.18675    0.42455    1.000
    C78      C        0.51509    0.25590    0.40720    1.000
    H36      H        0.50790    0.32200    0.41200    1.000
    C79      C        0.56421    0.22440    0.38260    1.000
    H37      H        0.59010    0.27040    0.37210    1.000
    C80      C        0.57611    0.12657    0.37304    1.000
    C81      C        0.53703    0.05890    0.38877    1.000
    H38      H        0.54380    0.99280    0.38310    1.000
    C82      C        0.48790    0.09048    0.41298    1.000
    H39      H        0.46160    0.04460    0.42170    1.000
    C83      C        0.63128    0.09924    0.35106    1.000
    C84      C        0.65327    0.15354    0.28095    1.000
    H40      H        0.63220    0.20090    0.24470    1.000
    C85      C        0.70685    0.13738    0.26459    1.000
    C86      C        0.73788    0.06773    0.32109    1.000
    H41      H        0.77430    0.05980    0.31480    1.000
    C87      C        0.71507    0.00987    0.38686    1.000
    C88      C        0.66117    0.02469    0.40002    1.000
    H42      H        0.64540    0.98410    0.44190    1.000
    C89      C        0.72852    0.19414    0.18486    1.000
    C90      C        0.74955    0.93204    0.44081    1.000
    O31      O        0.39353    0.15531    0.48420    1.000
    O32      O        0.41680    0.30830    0.47199    1.000
    O33      O        0.72779    0.85712    0.47098    1.000
    O34      O        0.80057    0.94254    0.45544    1.000
    O35      O        0.77723    0.17426    0.17232    1.000
    O36      O        0.69849    0.25373    0.13841    1.000
    Nd7      Nd       0.16993    0.78402    0.96114    1.000
    C91      C        0.07445    0.71829    0.03794    1.000
    C92      C        0.02339    0.68675    0.07545    1.000
    C93      C        0.98491    0.75590    0.09280    1.000
    H43      H        0.99210    0.82200    0.08800    1.000
    C94      C        0.93579    0.72440    0.11740    1.000
    H44      H        0.90990    0.77040    0.12790    1.000
    C95      C        0.92389    0.62657    0.12696    1.000
    C96      C        0.96297    0.55890    0.11123    1.000
    H45      H        0.95620    0.49280    0.11690    1.000
    C97      C        0.01210    0.59048    0.08702    1.000
    H46      H        0.03840    0.54460    0.07830    1.000
    C98      C        0.86872    0.59924    0.14894    1.000
    C99      C        0.84673    0.65354    0.21905    1.000
    H47      H        0.86780    0.70090    0.25530    1.000
    C100     C        0.79315    0.63738    0.23541    1.000
    C101     C        0.76212    0.56773    0.17891    1.000
    H48      H        0.72570    0.55980    0.18520    1.000
    C102     C        0.78493    0.50987    0.11314    1.000
    C103     C        0.83883    0.52469    0.09998    1.000
    H49      H        0.85460    0.48410    0.05810    1.000
    C104     C        0.77148    0.69414    0.31514    1.000
    C105     C        0.75045    0.43204    0.05919    1.000
    O37      O        0.10647    0.65531    0.01580    1.000
    O38      O        0.08320    0.80830    0.02801    1.000
    O39      O        0.77221    0.35712    0.02902    1.000
    O40      O        0.69943    0.44254    0.04456    1.000
    O41      O        0.72277    0.67426    0.32768    1.000
    O42      O        0.80151    0.75373    0.36159    1.000
    Nd8      Nd       0.66993    0.28402    0.96114    1.000
    C106     C        0.57445    0.21829    0.03794    1.000
    C107     C        0.52339    0.18675    0.07545    1.000
    C108     C        0.48491    0.25590    0.09280    1.000
    H50      H        0.49210    0.32200    0.08800    1.000
    C109     C        0.43579    0.22440    0.11740    1.000
    H51      H        0.40990    0.27040    0.12790    1.000
    C110     C        0.42389    0.12657    0.12696    1.000
    C111     C        0.46297    0.05890    0.11123    1.000
    H52      H        0.45620    0.99280    0.11690    1.000
    C112     C        0.51210    0.09048    0.08702    1.000
    H53      H        0.53840    0.04460    0.07830    1.000
    C113     C        0.36872    0.09924    0.14894    1.000
    C114     C        0.34673    0.15354    0.21905    1.000
    H54      H        0.36780    0.20090    0.25530    1.000
    C115     C        0.29315    0.13738    0.23541    1.000
    C116     C        0.26212    0.06773    0.17891    1.000
    H55      H        0.22570    0.05980    0.18520    1.000
    C117     C        0.28493    0.00987    0.11314    1.000
    C118     C        0.33883    0.02469    0.09998    1.000
    H56      H        0.35460    0.98410    0.05810    1.000
    C119     C        0.27148    0.19414    0.31514    1.000
    C120     C        0.25045    0.93204    0.05919    1.000
    O43      O        0.60647    0.15531    0.01580    1.000
    O44      O        0.58320    0.30830    0.02801    1.000
    O45      O        0.27221    0.85712    0.02902    1.000
    O46      O        0.19943    0.94254    0.04456    1.000
    O47      O        0.22277    0.17426    0.32768    1.000
    O48      O        0.30151    0.25373    0.36159    1.000
