# CIF file generated by openbabel 3.1.0, see https://openbabel.org
data_I
_chemical_name_common 'image0'
_cell_length_a 13.984
_cell_length_b 14.792
_cell_length_c 15.364
_cell_angle_alpha 75.43
_cell_angle_beta 82.74
_cell_angle_gamma 77.74
_space_group_name_H-M_alt 'P 1'
_space_group_name_Hall 'P 1'
loop_
    _symmetry_equiv_pos_as_xyz
    x,y,z
loop_
    _atom_site_label
    _atom_site_type_symbol
    _atom_site_fract_x
    _atom_site_fract_y
    _atom_site_fract_z
    _atom_site_occupancy
    Ba1      Ba       0.18762    0.07141    0.05853    1.000
    Ba2      Ba       0.97085    0.19068    0.83363    1.000
    S1       S        0.94000    0.60150    0.70010    1.000
    S2       S        0.22030    0.17123    0.82804    1.000
    S3       S        0.30780    0.83870    0.12026    1.000
    S4       S        0.06819    0.93346    0.91148    1.000
    O1       O        0.97360    0.60260    0.62020    1.000
    O2       O        0.01100    0.32300    0.36800    1.000
    O3       O        0.06380    0.30700    0.26500    1.000
    O4       O        0.99200    0.35400    0.45800    1.000
    O5       O        0.92100    0.64000    0.79200    1.000
    O6       O        0.29680    0.09990    0.86870    1.000
    O7       O        0.17030    0.14820    0.76260    1.000
    O8       O        0.14590    0.20470    0.89800    1.000
    O9       O        0.20210    0.87010    0.12700    1.000
    O10      O        0.35430    0.92310    0.08800    1.000
    O11      O        0.34460    0.76910    0.07110    1.000
    O12      O        0.02690    0.86210    0.98140    1.000
    O13      O        0.99120    0.99590    0.85670    1.000
    O14      O        0.12320    0.98600    0.94590    1.000
    O15      O        0.99600    0.94740    0.49830    1.000
    O16      O        0.95900    0.82500    0.49400    1.000
    O17      O        0.04100    0.88160    0.33200    1.000
    O18      O        0.95190    0.35440    0.70320    1.000
    H1       H        0.11440    0.62790    0.31410    1.000
    H2       H        0.03260    0.59590    0.27420    1.000
    H3       H        0.00400    0.65500    0.34830    1.000
    C1       C        0.51340    0.62560    0.62540    1.000
    C2       C        0.48280    0.52880    0.66140    1.000
    H4       H        0.49610    0.50550    0.72450    1.000
    H5       H        0.52180    0.48390    0.62850    1.000
    C3       C        0.37400    0.53400    0.65240    1.000
    C4       C        0.35250    0.57270    0.55400    1.000
    H6       H        0.38870    0.52860    0.51890    1.000
    H7       H        0.28310    0.57810    0.54850    1.000
    C5       C        0.38130    0.67070    0.51610    1.000
    C6       C        0.32110    0.73880    0.57450    1.000
    H8       H        0.25170    0.74550    0.56790    1.000
    H9       H        0.33840    0.80120    0.55270    1.000
    C7       C        0.33980    0.70250    0.67380    1.000
    C8       C        0.45160    0.69330    0.68090    1.000
    H10      H        0.46610    0.66990    0.74360    1.000
    H11      H        0.46920    0.75550    0.65960    1.000
    C9       C        0.49130    0.66180    0.52620    1.000
    H12      H        0.51010    0.72330    0.50250    1.000
    H13      H        0.52960    0.61810    0.49160    1.000
    C10      C        0.31440    0.60300    0.70910    1.000
    H14      H        0.32910    0.57910    0.77170    1.000
    H15      H        0.24480    0.60680    0.70600    1.000
    C11      C        0.62380    0.61280    0.63830    1.000
    C12      C        0.65510    0.58110    0.72500    1.000
    H16      H        0.61000    0.56750    0.77410    1.000
    C13      C        0.75380    0.56970    0.73840    1.000
    H17      H        0.77480    0.54850    0.79640    1.000
    C14      C        0.82130    0.59000    0.66500    1.000
    C15      C        0.79010    0.62170    0.57830    1.000
    H18      H        0.83520    0.63520    0.52920    1.000
    C16      C        0.69130    0.63310    0.56490    1.000
    H19      H        0.67040    0.65430    0.50690    1.000
    C17      C        0.34220    0.43840    0.69130    1.000
    C18      C        0.40210    0.36000    0.73610    1.000
    H20      H        0.46750    0.36190    0.73960    1.000
    C19      C        0.36630    0.27640    0.77710    1.000
    H21      H        0.40800    0.22430    0.80910    1.000
    C20      C        0.27190    0.27020    0.77100    1.000
    C21      C        0.20960    0.34910    0.72210    1.000
    H22      H        0.14460    0.34660    0.71730    1.000
    C22      C        0.24600    0.42940    0.68190    1.000
    H23      H        0.20570    0.48020    0.64680    1.000
    C23      C        0.36300    0.71030    0.41640    1.000
    C24      C        0.39040    0.79580    0.37100    1.000
    H24      H        0.42010    0.82760    0.40190    1.000
    C25      C        0.37470    0.83510    0.28120    1.000
    H25      H        0.39140    0.89370    0.25290    1.000
    C26      C        0.33500    0.78790    0.23460    1.000
    C27      C        0.30670    0.70270    0.27580    1.000
    H26      H        0.27930    0.67040    0.24350    1.000
    C28      C        0.32030    0.66560    0.36800    1.000
    H27      H        0.29970    0.60900    0.39700    1.000
    C29      C        0.27580    0.76590    0.72990    1.000
    C30      C        0.31110    0.80530    0.78970    1.000
    H28      H        0.37860    0.79580    0.79340    1.000
    C31      C        0.24940    0.85820    0.84380    1.000
    H29      H        0.27510    0.88360    0.88330    1.000
    C32      C        0.14990    0.87300    0.83890    1.000
    C33      C        0.11110    0.83500    0.77970    1.000
    H30      H        0.04360    0.84490    0.77620    1.000
    C34      C        0.17500    0.78240    0.72610    1.000
    H31      H        0.14930    0.75730    0.68630    1.000
    C35      C        0.09980    0.84180    0.41020    1.000
    C36      C        0.09900    0.90700    0.46590    1.000
    H32      H        0.04510    0.96150    0.46200    1.000
    H33      H        0.16100    0.91790    0.47850    1.000
    C37      C        0.07100    0.79200    0.50800    1.000
    H34      H        0.11890    0.74280    0.54090    1.000
    H35      H        0.00260    0.78650    0.52430    1.000
    C38      C        0.94550    0.99770    0.41780    1.000
    H36      H        0.97860    0.04860    0.38400    1.000
    H37      H        0.87860    0.02560    0.43480    1.000
    C39      C        0.05200    0.73200    0.47600    1.000
    C40      C        0.94510    0.92880    0.36060    1.000
    O19      O        0.01250    0.48980    0.31400    1.000
    O20      O        0.98900    0.49700    0.37200    1.000
    O21      O        0.95700    0.49800    0.78000    1.000
    O22      O        0.00100    0.51900    0.41400    1.000
    O23      O        0.01750    0.48580    0.26500    1.000
    O24      O        0.05160    0.52690    0.32330    1.000
    O25      O        0.05000    0.51810    0.29000    1.000
    Ba3      Ba       0.81238    0.92859    0.94147    1.000
    Ba4      Ba       0.02915    0.80932    0.16637    1.000
    S5       S        0.06000    0.39850    0.29990    1.000
    S6       S        0.77970    0.82877    0.17196    1.000
    S7       S        0.69220    0.16130    0.87974    1.000
    S8       S        0.93181    0.06654    0.08852    1.000
    O26      O        0.02640    0.39740    0.37980    1.000
    O27      O        0.98900    0.67700    0.63200    1.000
    O28      O        0.93620    0.69300    0.73500    1.000
    O29      O        0.00800    0.64600    0.54200    1.000
    O30      O        0.07900    0.36000    0.20800    1.000
    O31      O        0.70320    0.90010    0.13130    1.000
    O32      O        0.82970    0.85180    0.23740    1.000
    O33      O        0.85410    0.79530    0.10200    1.000
    O34      O        0.79790    0.12990    0.87300    1.000
    O35      O        0.64570    0.07690    0.91200    1.000
    O36      O        0.65540    0.23090    0.92890    1.000
    O37      O        0.97310    0.13790    0.01860    1.000
    O38      O        0.00880    0.00410    0.14330    1.000
    O39      O        0.87680    0.01400    0.05410    1.000
    O40      O        0.00400    0.05260    0.50170    1.000
    O41      O        0.04100    0.17500    0.50600    1.000
    O42      O        0.95900    0.11840    0.66800    1.000
    O43      O        0.04810    0.64560    0.29680    1.000
    H38      H        0.88560    0.37210    0.68590    1.000
    H39      H        0.96740    0.40410    0.72580    1.000
    H40      H        0.99600    0.34500    0.65170    1.000
    C41      C        0.48660    0.37440    0.37460    1.000
    C42      C        0.51720    0.47120    0.33860    1.000
    H41      H        0.50390    0.49450    0.27550    1.000
    H42      H        0.47820    0.51610    0.37150    1.000
    C43      C        0.62600    0.46600    0.34760    1.000
    C44      C        0.64750    0.42730    0.44600    1.000
    H43      H        0.61130    0.47140    0.48110    1.000
    H44      H        0.71690    0.42190    0.45150    1.000
    C45      C        0.61870    0.32930    0.48390    1.000
    C46      C        0.67890    0.26120    0.42550    1.000
    H45      H        0.74830    0.25450    0.43210    1.000
    H46      H        0.66160    0.19880    0.44730    1.000
    C47      C        0.66020    0.29750    0.32620    1.000
    C48      C        0.54840    0.30670    0.31910    1.000
    H47      H        0.53390    0.33010    0.25640    1.000
    H48      H        0.53080    0.24450    0.34040    1.000
    C49      C        0.50870    0.33820    0.47380    1.000
    H49      H        0.48990    0.27670    0.49750    1.000
    H50      H        0.47040    0.38190    0.50840    1.000
    C50      C        0.68560    0.39700    0.29090    1.000
    H51      H        0.67090    0.42090    0.22830    1.000
    H52      H        0.75520    0.39320    0.29400    1.000
    C51      C        0.37620    0.38720    0.36170    1.000
    C52      C        0.34490    0.41890    0.27500    1.000
    H53      H        0.39000    0.43250    0.22590    1.000
    C53      C        0.24620    0.43030    0.26160    1.000
    H54      H        0.22520    0.45150    0.20360    1.000
    C54      C        0.17870    0.41000    0.33500    1.000
    C55      C        0.20990    0.37830    0.42170    1.000
    H55      H        0.16480    0.36480    0.47080    1.000
    C56      C        0.30870    0.36690    0.43510    1.000
    H56      H        0.32960    0.34570    0.49310    1.000
    C57      C        0.65780    0.56160    0.30870    1.000
    C58      C        0.59790    0.64000    0.26390    1.000
    H57      H        0.53250    0.63810    0.26040    1.000
    C59      C        0.63370    0.72360    0.22290    1.000
    H58      H        0.59200    0.77570    0.19090    1.000
    C60      C        0.72810    0.72980    0.22900    1.000
    C61      C        0.79040    0.65090    0.27790    1.000
    H59      H        0.85540    0.65340    0.28270    1.000
    C62      C        0.75400    0.57060    0.31810    1.000
    H60      H        0.79430    0.51980    0.35320    1.000
    C63      C        0.63700    0.28970    0.58360    1.000
    C64      C        0.60960    0.20420    0.62900    1.000
    H61      H        0.57990    0.17240    0.59810    1.000
    C65      C        0.62530    0.16490    0.71880    1.000
    H62      H        0.60860    0.10630    0.74710    1.000
    C66      C        0.66500    0.21210    0.76540    1.000
    C67      C        0.69330    0.29730    0.72420    1.000
    H63      H        0.72070    0.32960    0.75650    1.000
    C68      C        0.67970    0.33440    0.63200    1.000
    H64      H        0.70030    0.39100    0.60300    1.000
    C69      C        0.72420    0.23410    0.27010    1.000
    C70      C        0.68890    0.19470    0.21030    1.000
    H65      H        0.62140    0.20420    0.20660    1.000
    C71      C        0.75060    0.14180    0.15620    1.000
    H66      H        0.72490    0.11640    0.11670    1.000
    C72      C        0.85010    0.12700    0.16110    1.000
    C73      C        0.88890    0.16500    0.22030    1.000
    H67      H        0.95640    0.15510    0.22380    1.000
    C74      C        0.82500    0.21760    0.27390    1.000
    H68      H        0.85070    0.24270    0.31370    1.000
    C75      C        0.90020    0.15820    0.58980    1.000
    C76      C        0.90100    0.09300    0.53410    1.000
    H69      H        0.95490    0.03850    0.53800    1.000
    H70      H        0.83900    0.08210    0.52150    1.000
    C77      C        0.92900    0.20800    0.49200    1.000
    H71      H        0.88110    0.25720    0.45910    1.000
    H72      H        0.99740    0.21350    0.47570    1.000
    C78      C        0.05450    0.00230    0.58220    1.000
    H73      H        0.02140    0.95140    0.61600    1.000
    H74      H        0.12140    0.97440    0.56520    1.000
    C79      C        0.94800    0.26800    0.52400    1.000
    C80      C        0.05490    0.07120    0.63940    1.000
    O44      O        0.98750    0.51020    0.68600    1.000
    O45      O        0.01100    0.50300    0.62800    1.000
    O46      O        0.04300    0.50200    0.22000    1.000
    O47      O        0.99900    0.48100    0.58600    1.000
    O48      O        0.98250    0.51420    0.73500    1.000
    O49      O        0.94840    0.47310    0.67670    1.000
    O50      O        0.95000    0.48190    0.71000    1.000
