# CIF file generated by openbabel 3.1.0, see https://openbabel.org
data_I
_chemical_name_common 'image0'
_cell_length_a 25.86
_cell_length_b 25.86
_cell_length_c 6.8678
_cell_angle_alpha 90
_cell_angle_beta 90
_cell_angle_gamma 120
_space_group_name_H-M_alt 'P 1'
_space_group_name_Hall 'P 1'
loop_
    _symmetry_equiv_pos_as_xyz
    x,y,z
loop_
    _atom_site_label
    _atom_site_type_symbol
    _atom_site_fract_x
    _atom_site_fract_y
    _atom_site_fract_z
    _atom_site_occupancy
    Co1      Co       0.36295    0.04900    0.52338    1.000
    O1       O        0.31120    0.05898    0.32780    1.000
    O2       O        0.33971    0.03725    0.97070    1.000
    O3       O        0.36499    0.10394    0.73500    1.000
    C1       C        0.32274    0.11099    0.24370    1.000
    C2       C        0.33927    0.12607    0.04610    1.000
    C3       C        0.34948    0.18115    0.97390    1.000
    H1       H        0.36060    0.19070    0.84120    1.000
    C4       C        0.34829    0.08681    0.90710    1.000
    Co2      Co       0.02962    0.38233    0.85671    1.000
    O4       O        0.97787    0.39231    0.66113    1.000
    O5       O        0.00638    0.37058    0.30403    1.000
    O6       O        0.03166    0.43727    0.06833    1.000
    C5       C        0.98941    0.44432    0.57703    1.000
    C6       C        0.00594    0.45940    0.37943    1.000
    C7       C        0.01615    0.51448    0.30723    1.000
    H2       H        0.02727    0.52403    0.17453    1.000
    C8       C        0.01496    0.42014    0.24043    1.000
    Co3      Co       0.69628    0.71567    0.19005    1.000
    O7       O        0.64453    0.72565    0.99447    1.000
    O8       O        0.67304    0.70392    0.63737    1.000
    O9       O        0.69832    0.77061    0.40167    1.000
    C9       C        0.65607    0.77766    0.91037    1.000
    C10      C        0.67260    0.79274    0.71277    1.000
    C11      C        0.68281    0.84782    0.64057    1.000
    H3       H        0.69393    0.85737    0.50787    1.000
    C12      C        0.68162    0.75348    0.57377    1.000
    Co4      Co       0.95100    0.31395    0.52338    1.000
    O10      O        0.94102    0.25222    0.32780    1.000
    O11      O        0.96275    0.30246    0.97070    1.000
    O12      O        0.89606    0.26105    0.73500    1.000
    C13      C        0.88901    0.21175    0.24370    1.000
    C14      C        0.87393    0.21320    0.04610    1.000
    C15      C        0.81885    0.16833    0.97390    1.000
    H4       H        0.80930    0.16990    0.84120    1.000
    C16      C        0.91319    0.26148    0.90710    1.000
    Co5      Co       0.61767    0.64728    0.85671    1.000
    O13      O        0.60769    0.58555    0.66113    1.000
    O14      O        0.62942    0.63579    0.30403    1.000
    O15      O        0.56273    0.59438    0.06833    1.000
    C17      C        0.55568    0.54508    0.57703    1.000
    C18      C        0.54060    0.54653    0.37943    1.000
    C19      C        0.48552    0.50166    0.30723    1.000
    H5       H        0.47597    0.50323    0.17453    1.000
    C20      C        0.57986    0.59481    0.24043    1.000
    Co6      Co       0.28433    0.98062    0.19005    1.000
    O16      O        0.27435    0.91889    0.99447    1.000
    O17      O        0.29608    0.96913    0.63737    1.000
    O18      O        0.22939    0.92772    0.40167    1.000
    C21      C        0.22234    0.87842    0.91037    1.000
    C22      C        0.20726    0.87987    0.71277    1.000
    C23      C        0.15218    0.83500    0.64057    1.000
    H6       H        0.14263    0.83657    0.50787    1.000
    C24      C        0.24652    0.92815    0.57377    1.000
    Co7      Co       0.68605    0.63705    0.52338    1.000
    O19      O        0.74778    0.68880    0.32780    1.000
    O20      O        0.69754    0.66029    0.97070    1.000
    O21      O        0.73895    0.63501    0.73500    1.000
    C25      C        0.78825    0.67726    0.24370    1.000
    C26      C        0.78680    0.66073    0.04610    1.000
    C27      C        0.83167    0.65052    0.97390    1.000
    H7       H        0.83010    0.63940    0.84120    1.000
    C28      C        0.73852    0.65171    0.90710    1.000
    Co8      Co       0.35272    0.97038    0.85671    1.000
    O22      O        0.41445    0.02213    0.66113    1.000
    O23      O        0.36421    0.99362    0.30403    1.000
    O24      O        0.40562    0.96834    0.06833    1.000
    C29      C        0.45492    0.01059    0.57703    1.000
    C30      C        0.45347    0.99406    0.37943    1.000
    C31      C        0.49834    0.98385    0.30723    1.000
    H8       H        0.49677    0.97273    0.17453    1.000
    C32      C        0.40519    0.98504    0.24043    1.000
    Co9      Co       0.01938    0.30372    0.19005    1.000
    O25      O        0.08111    0.35547    0.99447    1.000
    O26      O        0.03087    0.32696    0.63737    1.000
    O27      O        0.07228    0.30168    0.40167    1.000
    C33      C        0.12158    0.34393    0.91037    1.000
    C34      C        0.12013    0.32740    0.71277    1.000
    C35      C        0.16500    0.31719    0.64057    1.000
    H9       H        0.16343    0.30607    0.50787    1.000
    C36      C        0.07185    0.31838    0.57377    1.000
    Co10     Co       0.63705    0.95100    0.47662    1.000
    O28      O        0.68880    0.94102    0.67220    1.000
    O29      O        0.66029    0.96275    0.02930    1.000
    O30      O        0.63501    0.89606    0.26500    1.000
    C37      C        0.67726    0.88901    0.75630    1.000
    C38      C        0.66073    0.87393    0.95390    1.000
    C39      C        0.65052    0.81885    0.02610    1.000
    H10      H        0.63940    0.80930    0.15880    1.000
    C40      C        0.65171    0.91319    0.09290    1.000
    Co11     Co       0.30372    0.28433    0.80995    1.000
    O31      O        0.35547    0.27435    0.00553    1.000
    O32      O        0.32696    0.29608    0.36263    1.000
    O33      O        0.30168    0.22939    0.59833    1.000
    C41      C        0.34393    0.22234    0.08963    1.000
    C42      C        0.32740    0.20726    0.28723    1.000
    C43      C        0.31719    0.15218    0.35943    1.000
    H11      H        0.30607    0.14263    0.49213    1.000
    C44      C        0.31838    0.24652    0.42623    1.000
    Co12     Co       0.97038    0.61767    0.14329    1.000
    O34      O        0.02213    0.60769    0.33887    1.000
    O35      O        0.99362    0.62942    0.69597    1.000
    O36      O        0.96834    0.56273    0.93167    1.000
    C45      C        0.01059    0.55568    0.42297    1.000
    C46      C        0.99406    0.54060    0.62057    1.000
    C47      C        0.98385    0.48552    0.69277    1.000
    H12      H        0.97273    0.47597    0.82547    1.000
    C48      C        0.98504    0.57986    0.75957    1.000
    Co13     Co       0.04900    0.68605    0.47662    1.000
    O37      O        0.05898    0.74778    0.67220    1.000
    O38      O        0.03725    0.69754    0.02930    1.000
    O39      O        0.10394    0.73895    0.26500    1.000
    C49      C        0.11099    0.78825    0.75630    1.000
    C50      C        0.12607    0.78680    0.95390    1.000
    C51      C        0.18115    0.83167    0.02610    1.000
    H13      H        0.19070    0.83010    0.15880    1.000
    C52      C        0.08681    0.73852    0.09290    1.000
    Co14     Co       0.71567    0.01938    0.80995    1.000
    O40      O        0.72565    0.08111    0.00553    1.000
    O41      O        0.70392    0.03087    0.36263    1.000
    O42      O        0.77061    0.07228    0.59833    1.000
    C53      C        0.77766    0.12158    0.08963    1.000
    C54      C        0.79274    0.12013    0.28723    1.000
    C55      C        0.84782    0.16500    0.35943    1.000
    H14      H        0.85737    0.16343    0.49213    1.000
    C56      C        0.75348    0.07185    0.42623    1.000
    Co15     Co       0.38233    0.35272    0.14329    1.000
    O43      O        0.39231    0.41445    0.33887    1.000
    O44      O        0.37058    0.36421    0.69597    1.000
    O45      O        0.43727    0.40562    0.93167    1.000
    C57      C        0.44432    0.45492    0.42297    1.000
    C58      C        0.45940    0.45347    0.62057    1.000
    C59      C        0.51448    0.49834    0.69277    1.000
    H15      H        0.52403    0.49677    0.82547    1.000
    C60      C        0.42014    0.40519    0.75957    1.000
    Co16     Co       0.31395    0.36295    0.47662    1.000
    O46      O        0.25222    0.31120    0.67220    1.000
    O47      O        0.30246    0.33971    0.02930    1.000
    O48      O        0.26105    0.36499    0.26500    1.000
    C61      C        0.21175    0.32274    0.75630    1.000
    C62      C        0.21320    0.33927    0.95390    1.000
    C63      C        0.16833    0.34948    0.02610    1.000
    H16      H        0.16990    0.36060    0.15880    1.000
    C64      C        0.26148    0.34829    0.09290    1.000
    Co17     Co       0.98062    0.69628    0.80995    1.000
    O49      O        0.91889    0.64453    0.00553    1.000
    O50      O        0.96913    0.67304    0.36263    1.000
    O51      O        0.92772    0.69832    0.59833    1.000
    C65      C        0.87842    0.65607    0.08963    1.000
    C66      C        0.87987    0.67260    0.28723    1.000
    C67      C        0.83500    0.68281    0.35943    1.000
    H17      H        0.83657    0.69393    0.49213    1.000
    C68      C        0.92815    0.68162    0.42623    1.000
    Co18     Co       0.64728    0.02962    0.14329    1.000
    O52      O        0.58555    0.97787    0.33887    1.000
    O53      O        0.63579    0.00638    0.69597    1.000
    O54      O        0.59438    0.03166    0.93167    1.000
    C69      C        0.54508    0.98941    0.42297    1.000
    C70      C        0.54653    0.00594    0.62057    1.000
    C71      C        0.50166    0.01615    0.69277    1.000
    H18      H        0.50323    0.02727    0.82547    1.000
    C72      C        0.59481    0.01496    0.75957    1.000
