# CIF file generated by openbabel 3.1.0, see https://openbabel.org
data_I
_chemical_name_common 'image0'
_cell_length_a 12.497
_cell_length_b 12.5646
_cell_length_c 15.1697
_cell_angle_alpha 75.523
_cell_angle_beta 77.748
_cell_angle_gamma 85.439
_space_group_name_H-M_alt 'P 1'
_space_group_name_Hall 'P 1'
loop_
    _symmetry_equiv_pos_as_xyz
    x,y,z
loop_
    _atom_site_label
    _atom_site_type_symbol
    _atom_site_fract_x
    _atom_site_fract_y
    _atom_site_fract_z
    _atom_site_occupancy
    C1       C        0.54600    0.52720    0.78430    1.000
    C2       C        0.56600    0.53030    0.87690    1.000
    H1       H        0.63150    0.55770    0.88050    1.000
    C3       C        0.49260    0.49490    0.95490    1.000
    H2       H        0.42970    0.46260    0.95160    1.000
    C4       C        0.44240    0.77280    0.61580    1.000
    H3       H        0.51670    0.78350    0.60950    1.000
    C5       C        0.37030    0.86340    0.61630    1.000
    C6       C        0.25970    0.84660    0.62420    1.000
    H4       H        0.20930    0.90530    0.62320    1.000
    C7       C        0.22570    0.74220    0.63340    1.000
    H5       H        0.15200    0.72940    0.63920    1.000
    C8       C        0.30230    0.65650    0.63390    1.000
    H6       H        0.27850    0.58600    0.64140    1.000
    C9       C        0.40900    0.97400    0.61080    1.000
    C10      C        0.63490    0.08620    0.63710    1.000
    C11      C        0.71430    0.99030    0.65020    1.000
    H7       H        0.78240    0.01460    0.65690    1.000
    H8       H        0.68470    0.93580    0.70490    1.000
    H9       H        0.72660    0.95910    0.59710    1.000
    C12      C        0.73990    0.40320    0.62160    1.000
    H10      H        0.76330    0.47330    0.61640    1.000
    C13      C        0.78260    0.21280    0.63170    1.000
    H11      H        0.83290    0.15400    0.63460    1.000
    C14      C        0.67320    0.19610    0.63380    1.000
    C15      C        0.60190    0.28760    0.63130    1.000
    H12      H        0.52830    0.27750    0.63400    1.000
    C16      C        0.88340    0.22610    0.12550    1.000
    H13      H        0.95330    0.24930    0.12200    1.000
    C17      C        0.79730    0.30240    0.12810    1.000
    H14      H        0.80910    0.37520    0.12610    1.000
    C18      C        0.69320    0.26750    0.13380    1.000
    H15      H        0.63380    0.31700    0.13650    1.000
    C19      C        0.67710    0.15840    0.13540    1.000
    C20      C        0.76970    0.08790    0.13260    1.000
    H16      H        0.76050    0.01470    0.13430    1.000
    C21      C        0.56690    0.11920    0.13890    1.000
    C22      C        0.46970    0.19400    0.15720    1.000
    H17      H        0.49350    0.26090    0.16560    1.000
    H18      H        0.43340    0.21040    0.10530    1.000
    H19      H        0.41990    0.15860    0.21230    1.000
    C23      C        0.45390    0.89480    0.11370    1.000
    C24      C        0.55100    0.82020    0.09380    1.000
    H20      H        0.52690    0.75340    0.08550    1.000
    H21      H        0.59990    0.85600    0.03830    1.000
    H22      H        0.58840    0.80350    0.14500    1.000
    C25      C        0.25260    0.92820    0.11720    1.000
    H23      H        0.26290    0.00170    0.11400    1.000
    C26      C        0.34370    0.85710    0.11690    1.000
    C27      C        0.32720    0.74750    0.11930    1.000
    H24      H        0.38590    0.69710    0.11830    1.000
    C28      C        0.22300    0.71480    0.12330    1.000
    H25      H        0.21080    0.64230    0.12450    1.000
    C29      C        0.13660    0.79130    0.12540    1.000
    H26      H        0.06650    0.76830    0.12930    1.000
    C30      C        0.18150    0.23590    0.89210    1.000
    H27      H        0.21710    0.28400    0.91320    1.000
    C31      C        0.19140    0.24720    0.80130    1.000
    H28      H        0.14840    0.20380    0.78210    1.000
    C32      C        0.26440    0.32240    0.72980    1.000
    H29      H        0.30580    0.36930    0.74700    1.000
    C33      C        0.27330    0.32550    0.64050    1.000
    H30      H        0.22550    0.28480    0.62370    1.000
    C34      C        0.35700    0.39180    0.56580    1.000
    C35      C        0.33560    0.07170    0.58580    1.000
    H31      H        0.26910    0.04820    0.57520    1.000
    H32      H        0.31870    0.10850    0.63560    1.000
    H33      H        0.37180    0.12130    0.53030    1.000
    C36      C        0.98660    0.97710    0.30130    1.000
    C37      C        0.97050    0.94990    0.40440    1.000
    H34      H        0.93440    0.88600    0.43830    1.000
    C38      C        0.00550    0.01290    0.45010    1.000
    H35      H        0.03920    0.07790    0.41580    1.000
    C39      C        0.11420    0.14730    0.96080    1.000
    N1       N        0.40960    0.67120    0.62410    1.000
    N2       N        0.63340    0.38950    0.62500    1.000
    N3       N        0.15050    0.89740    0.12190    1.000
    N4       N        0.87120    0.12050    0.12780    1.000
    N5       N        0.53610    0.08220    0.62610    1.000
    N6       N        0.50470    0.97610    0.62940    1.000
    N7       N        0.45770    0.99050    0.12820    1.000
    N8       N        0.56380    0.02240    0.12460    1.000
    O1       O        0.60900    0.58320    0.71350    1.000
    O2       O        0.47010    0.47360    0.77640    1.000
    O3       O        0.41160    0.45780    0.58610    1.000
    O4       O        0.36720    0.37740    0.48530    1.000
    O5       O        0.04230    0.05780    0.25130    1.000
    O6       O        0.94500    0.91500    0.26460    1.000
    O7       O        0.11240    0.13770    0.04610    1.000
    O8       O        0.06240    0.08530    0.93360    1.000
    Co1      Co       0.52394    0.53148    0.62335    1.000
    Co2      Co       0.01125    0.00965    0.12617    1.000
    C40      C        0.81630    0.31690    0.62540    1.000
    H36      H        0.88920    0.32890    0.62370    1.000
    C41      C        0.45400    0.47280    0.21570    1.000
    C42      C        0.43400    0.46970    0.12310    1.000
    H37      H        0.36850    0.44230    0.11950    1.000
    C43      C        0.50740    0.50510    0.04510    1.000
    H38      H        0.57030    0.53740    0.04840    1.000
    C44      C        0.55760    0.22720    0.38420    1.000
    H39      H        0.48330    0.21650    0.39050    1.000
    C45      C        0.62970    0.13660    0.38370    1.000
    C46      C        0.74030    0.15340    0.37580    1.000
    H40      H        0.79070    0.09470    0.37680    1.000
    C47      C        0.77430    0.25780    0.36660    1.000
    H41      H        0.84800    0.27060    0.36080    1.000
    C48      C        0.69770    0.34350    0.36610    1.000
    H42      H        0.72150    0.41400    0.35860    1.000
    C49      C        0.59100    0.02600    0.38920    1.000
    C50      C        0.36510    0.91380    0.36290    1.000
    C51      C        0.28570    0.00970    0.34980    1.000
    H43      H        0.21760    0.98540    0.34310    1.000
    H44      H        0.31530    0.06420    0.29510    1.000
    H45      H        0.27340    0.04090    0.40290    1.000
    C52      C        0.26010    0.59680    0.37840    1.000
    H46      H        0.23670    0.52670    0.38360    1.000
    C53      C        0.21740    0.78720    0.36830    1.000
    H47      H        0.16710    0.84600    0.36540    1.000
    C54      C        0.32680    0.80390    0.36620    1.000
    C55      C        0.39810    0.71240    0.36870    1.000
    H48      H        0.47170    0.72250    0.36600    1.000
    C56      C        0.11660    0.77390    0.87450    1.000
    H49      H        0.04670    0.75070    0.87800    1.000
    C57      C        0.20270    0.69760    0.87190    1.000
    H50      H        0.19090    0.62480    0.87390    1.000
    C58      C        0.30680    0.73250    0.86620    1.000
    H51      H        0.36620    0.68300    0.86350    1.000
    C59      C        0.32290    0.84160    0.86460    1.000
    C60      C        0.23030    0.91210    0.86740    1.000
    H52      H        0.23950    0.98530    0.86570    1.000
    C61      C        0.43310    0.88080    0.86110    1.000
    C62      C        0.53030    0.80600    0.84280    1.000
    H53      H        0.50650    0.73910    0.83440    1.000
    H54      H        0.56660    0.78960    0.89470    1.000
    H55      H        0.58010    0.84140    0.78770    1.000
    C63      C        0.54610    0.10520    0.88630    1.000
    C64      C        0.44900    0.17980    0.90620    1.000
    H56      H        0.47310    0.24660    0.91450    1.000
    H57      H        0.40010    0.14400    0.96170    1.000
    H58      H        0.41160    0.19650    0.85500    1.000
    C65      C        0.74740    0.07180    0.88280    1.000
    H59      H        0.73710    0.99830    0.88600    1.000
    C66      C        0.65630    0.14290    0.88310    1.000
    C67      C        0.67280    0.25250    0.88070    1.000
    H60      H        0.61410    0.30290    0.88170    1.000
    C68      C        0.77700    0.28520    0.87670    1.000
    H61      H        0.78920    0.35770    0.87550    1.000
    C69      C        0.86340    0.20870    0.87460    1.000
    H62      H        0.93350    0.23170    0.87070    1.000
    C70      C        0.81850    0.76410    0.10790    1.000
    H63      H        0.78290    0.71600    0.08680    1.000
    C71      C        0.80860    0.75280    0.19870    1.000
    H64      H        0.85160    0.79620    0.21790    1.000
    C72      C        0.73560    0.67760    0.27020    1.000
    H65      H        0.69420    0.63070    0.25300    1.000
    C73      C        0.72670    0.67450    0.35950    1.000
    H66      H        0.77450    0.71520    0.37630    1.000
    C74      C        0.64300    0.60820    0.43420    1.000
    C75      C        0.66440    0.92830    0.41420    1.000
    H67      H        0.73090    0.95180    0.42480    1.000
    H68      H        0.68130    0.89150    0.36440    1.000
    H69      H        0.62820    0.87870    0.46970    1.000
    C76      C        0.01340    0.02290    0.69870    1.000
    C77      C        0.02950    0.05010    0.59560    1.000
    H70      H        0.06560    0.11400    0.56170    1.000
    C78      C        0.99450    0.98710    0.54990    1.000
    H71      H        0.96080    0.92210    0.58420    1.000
    C79      C        0.88580    0.85270    0.03920    1.000
    N9       N        0.59040    0.32880    0.37590    1.000
    N10      N        0.36660    0.61050    0.37500    1.000
    N11      N        0.84950    0.10260    0.87810    1.000
    N12      N        0.12880    0.87950    0.87220    1.000
    N13      N        0.46390    0.91780    0.37390    1.000
    N14      N        0.49530    0.02390    0.37060    1.000
    N15      N        0.54230    0.00950    0.87180    1.000
    N16      N        0.43620    0.97760    0.87540    1.000
    O9       O        0.39100    0.41680    0.28650    1.000
    O10      O        0.52990    0.52640    0.22360    1.000
    O11      O        0.58840    0.54220    0.41390    1.000
    O12      O        0.63280    0.62260    0.51470    1.000
    O13      O        0.95770    0.94220    0.74870    1.000
    O14      O        0.05500    0.08500    0.73540    1.000
    O15      O        0.88760    0.86230    0.95390    1.000
    O16      O        0.93760    0.91470    0.06640    1.000
    Co3      Co       0.47606    0.46852    0.37665    1.000
    Co4      Co       0.98875    0.99035    0.87383    1.000
    C80      C        0.18370    0.68310    0.37460    1.000
    H72      H        0.11080    0.67110    0.37630    1.000
