# CIF file generated by openbabel 3.1.0, see https://openbabel.org
data_I
_chemical_name_common 'image0'
_cell_length_a 12.935
_cell_length_b 14.708
_cell_length_c 15.359
_cell_angle_alpha 90
_cell_angle_beta 90
_cell_angle_gamma 90
_space_group_name_H-M_alt 'P 1'
_space_group_name_Hall 'P 1'
loop_
    _symmetry_equiv_pos_as_xyz
    x,y,z
loop_
    _atom_site_label
    _atom_site_type_symbol
    _atom_site_fract_x
    _atom_site_fract_y
    _atom_site_fract_z
    _atom_site_occupancy
    O1       O        0.35900    0.15900    0.12500    1.000
    C1       C        0.44220    0.17850    0.15050    1.000
    C2       C        0.47150    0.28100    0.13420    1.000
    C3       C        0.48200    0.02620    0.20600    1.000
    C4       C        0.62490    0.15100    0.19300    1.000
    N1       N        0.51470    0.12400    0.17850    1.000
    Zn1      Zn       0.01766    0.02724    0.04707    1.000
    Zn2      Zn       0.20196    0.17115    0.16508    1.000
    O2       O        0.13050    0.03620    0.96210    1.000
    O3       O        0.16800    0.16400    0.03250    1.000
    O4       O        0.44320    0.04690    0.64680    1.000
    O5       O        0.30330    0.96850    0.68390    1.000
    O6       O        0.43870    0.36630    0.91970    1.000
    O7       O        0.54190    0.31800    0.81231    1.000
    C5       C        0.26320    0.12930    0.90490    1.000
    C6       C        0.32360    0.20720    0.91390    1.000
    H1       H        0.31450    0.24540    0.96160    1.000
    C7       C        0.39810    0.22770    0.85080    1.000
    C8       C        0.41170    0.17000    0.78060    1.000
    H2       H        0.46250    0.18270    0.73950    1.000
    C9       C        0.34970    0.09290    0.77090    1.000
    C10      C        0.27700    0.07340    0.83300    1.000
    H3       H        0.23600    0.02180    0.82680    1.000
    C11      C        0.18260    0.10840    0.97210    1.000
    C12      C        0.36580    0.03060    0.69430    1.000
    C13      C        0.46580    0.31040    0.86170    1.000
    C14      C        0.43830    0.13590    0.16840    1.000
    C15      C        0.47200    0.03260    0.17500    1.000
    C16      C        0.48080    0.29860    0.16470    1.000
    C17      C        0.60990    0.17900    0.22700    1.000
    N2       N        0.50890    0.19800    0.18160    1.000
    O8       O        0.35400    0.14600    0.13900    1.000
    O9       O        0.14100    0.84100    0.62500    1.000
    C18      C        0.05780    0.82150    0.65050    1.000
    C19      C        0.02850    0.71900    0.63420    1.000
    C20      C        0.01800    0.97380    0.70600    1.000
    C21      C        0.87510    0.84900    0.69300    1.000
    N3       N        0.98530    0.87600    0.67850    1.000
    Zn3      Zn       0.48234    0.97276    0.54707    1.000
    Zn4      Zn       0.29804    0.82885    0.66508    1.000
    O10      O        0.36950    0.96380    0.46210    1.000
    O11      O        0.33200    0.83600    0.53250    1.000
    O12      O        0.05680    0.95310    0.14680    1.000
    O13      O        0.19670    0.03150    0.18390    1.000
    O14      O        0.06130    0.63370    0.41970    1.000
    O15      O        0.95810    0.68200    0.31231    1.000
    C22      C        0.23680    0.87070    0.40490    1.000
    C23      C        0.17640    0.79280    0.41390    1.000
    H4       H        0.18550    0.75460    0.46160    1.000
    C24      C        0.10190    0.77230    0.35080    1.000
    C25      C        0.08830    0.83000    0.28060    1.000
    H5       H        0.03750    0.81730    0.23950    1.000
    C26      C        0.15030    0.90710    0.27090    1.000
    C27      C        0.22300    0.92660    0.33300    1.000
    H6       H        0.26400    0.97820    0.32680    1.000
    C28      C        0.31740    0.89160    0.47210    1.000
    C29      C        0.13420    0.96940    0.19430    1.000
    C30      C        0.03420    0.68960    0.36170    1.000
    C31      C        0.06170    0.86410    0.66840    1.000
    C32      C        0.02800    0.96740    0.67500    1.000
    C33      C        0.01920    0.70140    0.66470    1.000
    C34      C        0.89010    0.82100    0.72700    1.000
    N4       N        0.99110    0.80200    0.68160    1.000
    O16      O        0.14600    0.85400    0.63900    1.000
    O17      O        0.64100    0.65900    0.37500    1.000
    C35      C        0.55780    0.67850    0.34950    1.000
    C36      C        0.52850    0.78100    0.36580    1.000
    C37      C        0.51800    0.52620    0.29400    1.000
    C38      C        0.37510    0.65100    0.30700    1.000
    N5       N        0.48530    0.62400    0.32150    1.000
    Zn5      Zn       0.98234    0.52724    0.45293    1.000
    Zn6      Zn       0.79804    0.67115    0.33492    1.000
    O18      O        0.86950    0.53620    0.53790    1.000
    O19      O        0.83200    0.66400    0.46750    1.000
    O20      O        0.55680    0.54690    0.85320    1.000
    O21      O        0.69670    0.46850    0.81610    1.000
    O22      O        0.56130    0.86630    0.58030    1.000
    O23      O        0.45810    0.81800    0.68769    1.000
    C39      C        0.73680    0.62930    0.59510    1.000
    C40      C        0.67640    0.70720    0.58610    1.000
    H7       H        0.68550    0.74540    0.53840    1.000
    C41      C        0.60190    0.72770    0.64920    1.000
    C42      C        0.58830    0.67000    0.71940    1.000
    H8       H        0.53750    0.68270    0.76050    1.000
    C43      C        0.65030    0.59290    0.72910    1.000
    C44      C        0.72300    0.57340    0.66700    1.000
    H9       H        0.76400    0.52180    0.67320    1.000
    C45      C        0.81740    0.60840    0.52790    1.000
    C46      C        0.63420    0.53060    0.80570    1.000
    C47      C        0.53420    0.81040    0.63830    1.000
    C48      C        0.56170    0.63590    0.33160    1.000
    C49      C        0.52800    0.53260    0.32500    1.000
    C50      C        0.51920    0.79860    0.33530    1.000
    C51      C        0.39010    0.67900    0.27300    1.000
    N6       N        0.49110    0.69800    0.31840    1.000
    O24      O        0.64600    0.64600    0.36100    1.000
    O25      O        0.85900    0.34100    0.87500    1.000
    C52      C        0.94220    0.32150    0.84950    1.000
    C53      C        0.97150    0.21900    0.86580    1.000
    C54      C        0.98200    0.47380    0.79400    1.000
    C55      C        0.12490    0.34900    0.80700    1.000
    N7       N        0.01470    0.37600    0.82150    1.000
    Zn7      Zn       0.51766    0.47276    0.95293    1.000
    Zn8      Zn       0.70196    0.32885    0.83492    1.000
    O26      O        0.63050    0.46380    0.03790    1.000
    O27      O        0.66800    0.33600    0.96750    1.000
    O28      O        0.94320    0.45310    0.35320    1.000
    O29      O        0.80330    0.53150    0.31610    1.000
    O30      O        0.93870    0.13370    0.08030    1.000
    O31      O        0.04190    0.18200    0.18769    1.000
    C56      C        0.76320    0.37070    0.09510    1.000
    C57      C        0.82360    0.29280    0.08610    1.000
    H10      H        0.81450    0.25460    0.03840    1.000
    C58      C        0.89810    0.27230    0.14920    1.000
    C59      C        0.91170    0.33000    0.21940    1.000
    H11      H        0.96250    0.31730    0.26050    1.000
    C60      C        0.84970    0.40710    0.22910    1.000
    C61      C        0.77700    0.42660    0.16700    1.000
    H12      H        0.73600    0.47820    0.17320    1.000
    C62      C        0.68260    0.39160    0.02790    1.000
    C63      C        0.86580    0.46940    0.30570    1.000
    C64      C        0.96580    0.18960    0.13830    1.000
    C65      C        0.93830    0.36410    0.83160    1.000
    C66      C        0.97200    0.46740    0.82500    1.000
    C67      C        0.98080    0.20140    0.83530    1.000
    C68      C        0.10990    0.32100    0.77300    1.000
    N8       N        0.00890    0.30200    0.81840    1.000
    O32      O        0.85400    0.35400    0.86100    1.000
