# CIF file generated by openbabel 3.1.0, see https://openbabel.org
data_I
_chemical_name_common 'image0'
_cell_length_a 11.195
_cell_length_b 12.757
_cell_length_c 13.508
_cell_angle_alpha 90
_cell_angle_beta 90
_cell_angle_gamma 90
_space_group_name_H-M_alt 'P 1'
_space_group_name_Hall 'P 1'
loop_
    _symmetry_equiv_pos_as_xyz
    x,y,z
loop_
    _atom_site_label
    _atom_site_type_symbol
    _atom_site_fract_x
    _atom_site_fract_y
    _atom_site_fract_z
    _atom_site_occupancy
    N1       N        0.63540    0.38620    0.20490    1.000
    C1       C        0.56450    0.44270    0.17820    1.000
    C2       C        0.47870    0.51600    0.14160    1.000
    H1       H        0.47980    0.57850    0.18240    1.000
    H2       H        0.39950    0.48550    0.14560    1.000
    C3       C        0.50600    0.54530    0.03510    1.000
    H3       H        0.45110    0.60030    0.01460    1.000
    H4       H        0.58610    0.57300    0.03130    1.000
    C4       C        0.44810    0.49880    0.03480    1.000
    H5       H        0.40860    0.43140    0.02850    1.000
    H6       H        0.39140    0.55220    0.01460    1.000
    N2       N        0.85490    0.29370    0.38480    1.000
    C5       C        0.91290    0.32050    0.44650    1.000
    C6       C        0.98650    0.35440    0.52600    1.000
    H7       H        0.04890    0.30250    0.53540    1.000
    H8       H        0.93840    0.35510    0.58580    1.000
    C7       C        0.04450    0.45930    0.51580    1.000
    H9       H        0.10820    0.45520    0.46730    1.000
    H10      H        0.07940    0.47960    0.57870    1.000
    C8       C        0.97130    0.47110    0.54250    1.000
    H11      H        0.88700    0.48840    0.54600    1.000
    H12      H        0.00850    0.49140    0.60440    1.000
    N3       N        0.63540    0.11380    0.29510    1.000
    C9       C        0.56450    0.05730    0.32180    1.000
    C10      C        0.47870    0.98400    0.35840    1.000
    H13      H        0.47980    0.92150    0.31760    1.000
    H14      H        0.39950    0.01450    0.35440    1.000
    C11      C        0.50600    0.95470    0.46490    1.000
    H15      H        0.45110    0.89970    0.48540    1.000
    H16      H        0.58610    0.92700    0.46870    1.000
    C12      C        0.44810    0.00120    0.46520    1.000
    H17      H        0.40860    0.06860    0.47150    1.000
    H18      H        0.39140    0.94780    0.48540    1.000
    N4       N        0.85490    0.20630    0.11520    1.000
    C13      C        0.91290    0.17950    0.05350    1.000
    C14      C        0.98650    0.14560    0.97400    1.000
    H19      H        0.04890    0.19750    0.96460    1.000
    H20      H        0.93840    0.14490    0.91420    1.000
    C15      C        0.04450    0.04070    0.98420    1.000
    H21      H        0.10820    0.04480    0.03270    1.000
    H22      H        0.07940    0.02040    0.92130    1.000
    C16      C        0.97130    0.02890    0.95750    1.000
    H23      H        0.88700    0.01160    0.95400    1.000
    H24      H        0.00850    0.00860    0.89560    1.000
    N5       N        0.36460    0.61380    0.79510    1.000
    C17      C        0.43550    0.55730    0.82180    1.000
    C18      C        0.52130    0.48400    0.85840    1.000
    H25      H        0.52020    0.42150    0.81760    1.000
    H26      H        0.60050    0.51450    0.85440    1.000
    C19      C        0.49400    0.45470    0.96490    1.000
    H27      H        0.54890    0.39970    0.98540    1.000
    H28      H        0.41390    0.42700    0.96870    1.000
    C20      C        0.55190    0.50120    0.96520    1.000
    H29      H        0.59140    0.56860    0.97150    1.000
    H30      H        0.60860    0.44780    0.98540    1.000
    N6       N        0.14510    0.70630    0.61520    1.000
    C21      C        0.08710    0.67950    0.55350    1.000
    C22      C        0.01350    0.64560    0.47400    1.000
    H31      H        0.95110    0.69750    0.46460    1.000
    H32      H        0.06160    0.64490    0.41420    1.000
    C23      C        0.95550    0.54070    0.48420    1.000
    H33      H        0.89180    0.54480    0.53270    1.000
    H34      H        0.92060    0.52040    0.42130    1.000
    C24      C        0.02870    0.52890    0.45750    1.000
    H35      H        0.11300    0.51160    0.45400    1.000
    H36      H        0.99150    0.50860    0.39560    1.000
    N7       N        0.36460    0.88620    0.70490    1.000
    C25      C        0.43550    0.94270    0.67820    1.000
    C26      C        0.52130    0.01600    0.64160    1.000
    H37      H        0.52020    0.07850    0.68240    1.000
    H38      H        0.60050    0.98550    0.64560    1.000
    C27      C        0.49400    0.04530    0.53510    1.000
    H39      H        0.54890    0.10030    0.51460    1.000
    H40      H        0.41390    0.07300    0.53130    1.000
    C28      C        0.55190    0.99880    0.53480    1.000
    H41      H        0.59140    0.93140    0.52850    1.000
    H42      H        0.60860    0.05220    0.51460    1.000
    N8       N        0.14510    0.79370    0.88480    1.000
    C29      C        0.08710    0.82050    0.94650    1.000
    C30      C        0.01350    0.85440    0.02600    1.000
    H43      H        0.95110    0.80250    0.03540    1.000
    H44      H        0.06160    0.85510    0.08580    1.000
    C31      C        0.95550    0.95930    0.01580    1.000
    H45      H        0.89180    0.95520    0.96730    1.000
    H46      H        0.92060    0.97960    0.07870    1.000
    C32      C        0.02870    0.97110    0.04250    1.000
    H47      H        0.11300    0.98840    0.04600    1.000
    H48      H        0.99150    0.99140    0.10440    1.000
    Ag1      Ag       0.75139    0.25000    0.25000    1.000
    Ag2      Ag       0.24861    0.75000    0.75000    1.000
    N9       N        0.86460    0.38620    0.79510    1.000
    C33      C        0.93550    0.44270    0.82180    1.000
    C34      C        0.02130    0.51600    0.85840    1.000
    H49      H        0.02020    0.57850    0.81760    1.000
    H50      H        0.10050    0.48550    0.85440    1.000
    C35      C        0.99400    0.54530    0.96490    1.000
    H51      H        0.04890    0.60030    0.98540    1.000
    H52      H        0.91390    0.57300    0.96870    1.000
    C36      C        0.05190    0.49880    0.96520    1.000
    H53      H        0.09140    0.43140    0.97150    1.000
    H54      H        0.10860    0.55220    0.98540    1.000
    N10      N        0.64510    0.29370    0.61520    1.000
    C37      C        0.58710    0.32050    0.55350    1.000
    C38      C        0.51350    0.35440    0.47400    1.000
    H55      H        0.45110    0.30250    0.46460    1.000
    H56      H        0.56160    0.35510    0.41420    1.000
    C39      C        0.45550    0.45930    0.48420    1.000
    H57      H        0.39180    0.45520    0.53270    1.000
    H58      H        0.42060    0.47960    0.42130    1.000
    C40      C        0.52870    0.47110    0.45750    1.000
    H59      H        0.61300    0.48840    0.45400    1.000
    H60      H        0.49150    0.49140    0.39560    1.000
    N11      N        0.86460    0.11380    0.70490    1.000
    C41      C        0.93550    0.05730    0.67820    1.000
    C42      C        0.02130    0.98400    0.64160    1.000
    H61      H        0.02020    0.92150    0.68240    1.000
    H62      H        0.10050    0.01450    0.64560    1.000
    C43      C        0.99400    0.95470    0.53510    1.000
    H63      H        0.04890    0.89970    0.51460    1.000
    H64      H        0.91390    0.92700    0.53130    1.000
    C44      C        0.05190    0.00120    0.53480    1.000
    H65      H        0.09140    0.06860    0.52850    1.000
    H66      H        0.10860    0.94780    0.51460    1.000
    N12      N        0.64510    0.20630    0.88480    1.000
    C45      C        0.58710    0.17950    0.94650    1.000
    C46      C        0.51350    0.14560    0.02600    1.000
    H67      H        0.45110    0.19750    0.03540    1.000
    H68      H        0.56160    0.14490    0.08580    1.000
    C47      C        0.45550    0.04070    0.01580    1.000
    H69      H        0.39180    0.04480    0.96730    1.000
    H70      H        0.42060    0.02040    0.07870    1.000
    C48      C        0.52870    0.02890    0.04250    1.000
    H71      H        0.61300    0.01160    0.04600    1.000
    H72      H        0.49150    0.00860    0.10440    1.000
    N13      N        0.13540    0.61380    0.20490    1.000
    C49      C        0.06450    0.55730    0.17820    1.000
    C50      C        0.97870    0.48400    0.14160    1.000
    H73      H        0.97980    0.42150    0.18240    1.000
    H74      H        0.89950    0.51450    0.14560    1.000
    C51      C        0.00600    0.45470    0.03510    1.000
    H75      H        0.95110    0.39970    0.01460    1.000
    H76      H        0.08610    0.42700    0.03130    1.000
    C52      C        0.94810    0.50120    0.03480    1.000
    H77      H        0.90860    0.56860    0.02850    1.000
    H78      H        0.89140    0.44780    0.01460    1.000
    N14      N        0.35490    0.70630    0.38480    1.000
    C53      C        0.41290    0.67950    0.44650    1.000
    C54      C        0.48650    0.64560    0.52600    1.000
    H79      H        0.54890    0.69750    0.53540    1.000
    H80      H        0.43840    0.64490    0.58580    1.000
    C55      C        0.54450    0.54070    0.51580    1.000
    H81      H        0.60820    0.54480    0.46730    1.000
    H82      H        0.57940    0.52040    0.57870    1.000
    C56      C        0.47130    0.52890    0.54250    1.000
    H83      H        0.38700    0.51160    0.54600    1.000
    H84      H        0.50850    0.50860    0.60440    1.000
    N15      N        0.13540    0.88620    0.29510    1.000
    C57      C        0.06450    0.94270    0.32180    1.000
    C58      C        0.97870    0.01600    0.35840    1.000
    H85      H        0.97980    0.07850    0.31760    1.000
    H86      H        0.89950    0.98550    0.35440    1.000
    C59      C        0.00600    0.04530    0.46490    1.000
    H87      H        0.95110    0.10030    0.48540    1.000
    H88      H        0.08610    0.07300    0.46870    1.000
    C60      C        0.94810    0.99880    0.46520    1.000
    H89      H        0.90860    0.93140    0.47150    1.000
    H90      H        0.89140    0.05220    0.48540    1.000
    N16      N        0.35490    0.79370    0.11520    1.000
    C61      C        0.41290    0.82050    0.05350    1.000
    C62      C        0.48650    0.85440    0.97400    1.000
    H91      H        0.54890    0.80250    0.96460    1.000
    H92      H        0.43840    0.85510    0.91420    1.000
    C63      C        0.54450    0.95930    0.98420    1.000
    H93      H        0.60820    0.95520    0.03270    1.000
    H94      H        0.57940    0.97960    0.92130    1.000
    C64      C        0.47130    0.97110    0.95750    1.000
    H95      H        0.38700    0.98840    0.95400    1.000
    H96      H        0.50850    0.99140    0.89560    1.000
    Ag3      Ag       0.74861    0.25000    0.75000    1.000
    Ag4      Ag       0.25139    0.75000    0.25000    1.000
