# CIF file generated by openbabel 3.1.0, see https://openbabel.org
data_I
_chemical_name_common 'image0'
_cell_length_a 6.5554
_cell_length_b 15.384
_cell_length_c 18.135
_cell_angle_alpha 90
_cell_angle_beta 90
_cell_angle_gamma 90
_space_group_name_H-M_alt 'P 1'
_space_group_name_Hall 'P 1'
loop_
    _symmetry_equiv_pos_as_xyz
    x,y,z
loop_
    _atom_site_label
    _atom_site_type_symbol
    _atom_site_fract_x
    _atom_site_fract_y
    _atom_site_fract_z
    _atom_site_occupancy
    O1       O        0.68680    0.63070    0.56960    1.000
    O2       O        0.68620    0.67470    0.58660    1.000
    O3       O        0.18680    0.13070    0.56960    1.000
    O4       O        0.18620    0.17470    0.58660    1.000
    O5       O        0.31320    0.36930    0.06960    1.000
    O6       O        0.31380    0.32530    0.08660    1.000
    O7       O        0.81320    0.86930    0.06960    1.000
    O8       O        0.81380    0.82530    0.08660    1.000
    O9       O        0.31320    0.63070    0.93040    1.000
    O10      O        0.31380    0.67470    0.91340    1.000
    O11      O        0.81320    0.13070    0.93040    1.000
    O12      O        0.81380    0.17470    0.91340    1.000
    O13      O        0.68680    0.36930    0.43040    1.000
    O14      O        0.68620    0.32530    0.41340    1.000
    O15      O        0.18680    0.86930    0.43040    1.000
    O16      O        0.18620    0.82530    0.41340    1.000
    O17      O        0.31320    0.36930    0.43040    1.000
    O18      O        0.31380    0.32530    0.41340    1.000
    O19      O        0.81320    0.86930    0.43040    1.000
    O20      O        0.81380    0.82530    0.41340    1.000
    O21      O        0.68680    0.63070    0.93040    1.000
    O22      O        0.68620    0.67470    0.91340    1.000
    O23      O        0.18680    0.13070    0.93040    1.000
    O24      O        0.18620    0.17470    0.91340    1.000
    O25      O        0.68680    0.36930    0.06960    1.000
    O26      O        0.68620    0.32530    0.08660    1.000
    O27      O        0.18680    0.86930    0.06960    1.000
    O28      O        0.18620    0.82530    0.08660    1.000
    O29      O        0.31320    0.63070    0.56960    1.000
    O30      O        0.31380    0.67470    0.58660    1.000
    O31      O        0.81320    0.13070    0.56960    1.000
    O32      O        0.81380    0.17470    0.58660    1.000
    In1      In       0.50000    0.83529    0.42689    1.000
    P1       P        0.50000    0.66410    0.54248    1.000
    H1       H        0.50000    0.73950    0.58470    1.000
    O33      O        0.50000    0.70950    0.46900    1.000
    O34      O        0.50000    0.79450    0.31720    1.000
    O35      O        0.50000    0.97850    0.40540    1.000
    O36      O        0.50000    0.10550    0.46230    1.000
    C1       C        0.50000    0.02390    0.46180    1.000
    H2       H        0.50000    0.57620    0.52470    1.000
    In2      In       0.00000    0.33529    0.42689    1.000
    P2       P        0.00000    0.16410    0.54248    1.000
    H3       H        0.00000    0.23950    0.58470    1.000
    O37      O        0.00000    0.20950    0.46900    1.000
    O38      O        0.00000    0.29450    0.31720    1.000
    O39      O        0.00000    0.47850    0.40540    1.000
    O40      O        0.00000    0.60550    0.46230    1.000
    C2       C        0.00000    0.52390    0.46180    1.000
    H4       H        0.00000    0.07620    0.52470    1.000
    In3      In       0.50000    0.16471    0.92689    1.000
    P3       P        0.50000    0.33590    0.04248    1.000
    H5       H        0.50000    0.26050    0.08470    1.000
    O41      O        0.50000    0.29050    0.96900    1.000
    O42      O        0.50000    0.20550    0.81720    1.000
    O43      O        0.50000    0.02150    0.90540    1.000
    O44      O        0.50000    0.89450    0.96230    1.000
    C3       C        0.50000    0.97610    0.96180    1.000
    H6       H        0.50000    0.42380    0.02470    1.000
    In4      In       0.00000    0.66471    0.92689    1.000
    P4       P        0.00000    0.83590    0.04248    1.000
    H7       H        0.00000    0.76050    0.08470    1.000
    O45      O        0.00000    0.79050    0.96900    1.000
    O46      O        0.00000    0.70550    0.81720    1.000
    O47      O        0.00000    0.52150    0.90540    1.000
    O48      O        0.00000    0.39450    0.96230    1.000
    C4       C        0.00000    0.47610    0.96180    1.000
    H8       H        0.00000    0.92380    0.02470    1.000
    In5      In       0.50000    0.83529    0.07311    1.000
    P5       P        0.50000    0.66410    0.95752    1.000
    H9       H        0.50000    0.73950    0.91530    1.000
    O49      O        0.50000    0.70950    0.03100    1.000
    O50      O        0.50000    0.79450    0.18280    1.000
    O51      O        0.50000    0.97850    0.09460    1.000
    O52      O        0.50000    0.10550    0.03770    1.000
    C5       C        0.50000    0.02390    0.03820    1.000
    H10      H        0.50000    0.57620    0.97530    1.000
    In6      In       0.00000    0.33529    0.07311    1.000
    P6       P        0.00000    0.16410    0.95752    1.000
    H11      H        0.00000    0.23950    0.91530    1.000
    O53      O        0.00000    0.20950    0.03100    1.000
    O54      O        0.00000    0.29450    0.18280    1.000
    O55      O        0.00000    0.47850    0.09460    1.000
    O56      O        0.00000    0.60550    0.03770    1.000
    C6       C        0.00000    0.52390    0.03820    1.000
    H12      H        0.00000    0.07620    0.97530    1.000
    In7      In       0.50000    0.16471    0.57311    1.000
    P7       P        0.50000    0.33590    0.45752    1.000
    H13      H        0.50000    0.26050    0.41530    1.000
    O57      O        0.50000    0.29050    0.53100    1.000
    O58      O        0.50000    0.20550    0.68280    1.000
    O59      O        0.50000    0.02150    0.59460    1.000
    O60      O        0.50000    0.89450    0.53770    1.000
    C7       C        0.50000    0.97610    0.53820    1.000
    H14      H        0.50000    0.42380    0.47530    1.000
    In8      In       0.00000    0.66471    0.57311    1.000
    P8       P        0.00000    0.83590    0.45752    1.000
    H15      H        0.00000    0.76050    0.41530    1.000
    O61      O        0.00000    0.79050    0.53100    1.000
    O62      O        0.00000    0.70550    0.68280    1.000
    O63      O        0.00000    0.52150    0.59460    1.000
    O64      O        0.00000    0.39450    0.53770    1.000
    C8       C        0.00000    0.47610    0.53820    1.000
    H16      H        0.00000    0.92380    0.47530    1.000
    P9       P        0.60810    0.83720    0.25000    1.000
    H17      H        0.82640    0.84750    0.25000    1.000
    O65      O        0.57400    0.93260    0.25000    1.000
    P10      P        0.10810    0.33720    0.25000    1.000
    H18      H        0.32640    0.34750    0.25000    1.000
    O66      O        0.07400    0.43260    0.25000    1.000
    P11      P        0.39190    0.16280    0.75000    1.000
    H19      H        0.17360    0.15250    0.75000    1.000
    O67      O        0.42600    0.06740    0.75000    1.000
    P12      P        0.89190    0.66280    0.75000    1.000
    H20      H        0.67360    0.65250    0.75000    1.000
    O68      O        0.92600    0.56740    0.75000    1.000
    P13      P        0.39190    0.83720    0.25000    1.000
    H21      H        0.17360    0.84750    0.25000    1.000
    O69      O        0.42600    0.93260    0.25000    1.000
    P14      P        0.89190    0.33720    0.25000    1.000
    H22      H        0.67360    0.34750    0.25000    1.000
    O70      O        0.92600    0.43260    0.25000    1.000
    P15      P        0.60810    0.16280    0.75000    1.000
    H23      H        0.82640    0.15250    0.75000    1.000
    O71      O        0.57400    0.06740    0.75000    1.000
    P16      P        0.10810    0.66280    0.75000    1.000
    H24      H        0.32640    0.65250    0.75000    1.000
    O72      O        0.07400    0.56740    0.75000    1.000
