# CIF file generated by openbabel 3.1.0, see https://openbabel.org
data_I
_chemical_name_common 'VIFBOD_clean'
_cell_length_a 10.285
_cell_length_b 11.5717
_cell_length_c 13.5114
_cell_angle_alpha 85.581
_cell_angle_beta 69.209
_cell_angle_gamma 63.755
_space_group_name_H-M_alt 'P 1'
_space_group_name_Hall 'P 1'
loop_
    _symmetry_equiv_pos_as_xyz
    x,y,z
loop_
    _atom_site_label
    _atom_site_type_symbol
    _atom_site_fract_x
    _atom_site_fract_y
    _atom_site_fract_z
    _atom_site_occupancy
    Tm1      Tm       0.44461    0.72456    0.67969    1.000
    Tm2      Tm       0.46882    0.20302    0.69070    1.000
    Tm3      Tm       0.55539    0.27544    0.32031    1.000
    Tm4      Tm       0.53118    0.79698    0.30930    1.000
    H1       H        0.98950    0.88940    0.60220    1.000
    H2       H        0.63460    0.79610    0.90870    1.000
    H3       H        0.00700    0.58330    0.38980    1.000
    H4       H        0.01050    0.11060    0.39780    1.000
    H5       H        0.36540    0.20390    0.09130    1.000
    H6       H        0.99300    0.41670    0.61020    1.000
    C1       C        0.86180    0.75280    0.48130    1.000
    C2       C        0.13450    0.72240    0.50790    1.000
    C3       C        0.44330    0.95130    0.81600    1.000
    C4       C        0.85720    0.84370    0.54780    1.000
    C5       C        0.13970    0.62810    0.44570    1.000
    C6       C        0.99330    0.82800    0.55930    1.000
    C7       C        0.72220    0.76580    0.46110    1.000
    C8       C        0.47200    0.97860    0.91080    1.000
    C9       C        0.58000    0.87770    0.94600    1.000
    C10      C        0.00310    0.64520    0.43230    1.000
    C11      C        0.26560    0.21660    0.93980    1.000
    C12      C        0.39320    0.10280    0.96500    1.000
    C13      C        0.27370    0.72170    0.52200    1.000
    C14      C        0.28730    0.50810    0.39660    1.000
    C15      C        0.71190    0.96230    0.60460    1.000
    C16      C        0.13820    0.24720    0.51870    1.000
    C17      C        0.86550    0.27760    0.49210    1.000
    C18      C        0.55670    0.04870    0.18400    1.000
    C19      C        0.14280    0.15630    0.45220    1.000
    C20      C        0.86030    0.37190    0.55430    1.000
    C21      C        0.00670    0.17200    0.44070    1.000
    C22      C        0.27780    0.23420    0.53890    1.000
    C23      C        0.52800    0.02140    0.08920    1.000
    C24      C        0.42000    0.12230    0.05400    1.000
    C25      C        0.99690    0.35480    0.56770    1.000
    C26      C        0.73440    0.78340    0.06020    1.000
    C27      C        0.60680    0.89720    0.03500    1.000
    C28      C        0.72630    0.27830    0.47800    1.000
    C29      C        0.71270    0.49190    0.60340    1.000
    C30      C        0.28810    0.03770    0.39540    1.000
    O1       O        0.60710    0.01510    0.56473    1.000
    O2       O        0.38040    0.04620    0.76827    1.000
    O3       O        0.40070    0.48140    0.42600    1.000
    O4       O        0.28480    0.69760    0.61150    1.000
    O5       O        0.29970    0.27970    0.86117    1.000
    O6       O        0.29670    0.43320    0.32800    1.000
    O7       O        0.72840    0.77470    0.36550    1.000
    O8       O        0.48560    0.83500    0.78800    1.000
    O9       O        0.13180    0.24630    0.00300    1.000
    O10      O        0.69950    0.01240    0.68970    1.000
    O11      O        0.36170    0.75460    0.44840    1.000
    O12      O        0.60870    0.76440    0.53630    1.000
    O13      O        0.39290    0.98490    0.43527    1.000
    O14      O        0.61960    0.95380    0.23173    1.000
    O15      O        0.59930    0.51860    0.57400    1.000
    O16      O        0.71520    0.30240    0.38850    1.000
    O17      O        0.70030    0.72030    0.13883    1.000
    O18      O        0.70330    0.56680    0.67200    1.000
    O19      O        0.27160    0.22530    0.63450    1.000
    O20      O        0.51440    0.16500    0.21200    1.000
    O21      O        0.86820    0.75370    0.99700    1.000
    O22      O        0.30050    0.98760    0.31030    1.000
    O23      O        0.63830    0.24540    0.55160    1.000
    O24      O        0.39130    0.23560    0.46370    1.000
