# CIF file generated by openbabel 3.1.0, see https://openbabel.org
data_I
_chemical_name_common 'image0'
_cell_length_a 15.035
_cell_length_b 15.035
_cell_length_c 19.294
_cell_angle_alpha 90
_cell_angle_beta 90
_cell_angle_gamma 90
_space_group_name_H-M_alt 'P 1'
_space_group_name_Hall 'P 1'
loop_
    _symmetry_equiv_pos_as_xyz
    x,y,z
loop_
    _atom_site_label
    _atom_site_type_symbol
    _atom_site_fract_x
    _atom_site_fract_y
    _atom_site_fract_z
    _atom_site_occupancy
    O1       O        0.05230    0.87790    0.05730    1.000
    C1       C        0.16900    0.73420    0.06230    1.000
    O2       O        0.14160    0.75720    0.12160    1.000
    H1       H        0.10670    0.80050    0.11770    1.000
    C2       C        0.02300    0.90930    0.20920    1.000
    C3       C        0.92300    0.05100    0.20830    1.000
    O3       O        0.55230    0.37790    0.55730    1.000
    C4       C        0.66900    0.23420    0.56230    1.000
    O4       O        0.64160    0.25720    0.62160    1.000
    H2       H        0.60670    0.30050    0.61770    1.000
    C5       C        0.52300    0.40930    0.70920    1.000
    C6       C        0.42300    0.55100    0.70830    1.000
    O5       O        0.94770    0.12210    0.05730    1.000
    C7       C        0.83100    0.26580    0.06230    1.000
    O6       O        0.85840    0.24280    0.12160    1.000
    H3       H        0.89330    0.19950    0.11770    1.000
    C8       C        0.97700    0.09070    0.20920    1.000
    C9       C        0.07700    0.94900    0.20830    1.000
    O7       O        0.44770    0.62210    0.55730    1.000
    C10      C        0.33100    0.76580    0.56230    1.000
    O8       O        0.35840    0.74280    0.62160    1.000
    H4       H        0.39330    0.69950    0.61770    1.000
    C11      C        0.47700    0.59070    0.70920    1.000
    C12      C        0.57700    0.44900    0.70830    1.000
    O9       O        0.12210    0.05230    0.05730    1.000
    C13      C        0.26580    0.16900    0.06230    1.000
    O10      O        0.24280    0.14160    0.12160    1.000
    H5       H        0.19950    0.10670    0.11770    1.000
    C14      C        0.09070    0.02300    0.20920    1.000
    C15      C        0.94900    0.92300    0.20830    1.000
    O11      O        0.62210    0.55230    0.55730    1.000
    C16      C        0.76580    0.66900    0.56230    1.000
    O12      O        0.74280    0.64160    0.62160    1.000
    H6       H        0.69950    0.60670    0.61770    1.000
    C17      C        0.59070    0.52300    0.70920    1.000
    C18      C        0.44900    0.42300    0.70830    1.000
    O13      O        0.87790    0.94770    0.05730    1.000
    C19      C        0.73420    0.83100    0.06230    1.000
    O14      O        0.75720    0.85840    0.12160    1.000
    H7       H        0.80050    0.89330    0.11770    1.000
    C20      C        0.90930    0.97700    0.20920    1.000
    C21      C        0.05100    0.07700    0.20830    1.000
    O15      O        0.37790    0.44770    0.55730    1.000
    C22      C        0.23420    0.33100    0.56230    1.000
    O16      O        0.25720    0.35840    0.62160    1.000
    H8       H        0.30050    0.39330    0.61770    1.000
    C23      C        0.40930    0.47700    0.70920    1.000
    C24      C        0.55100    0.57700    0.70830    1.000
    O17      O        0.94770    0.87790    0.44270    1.000
    C25      C        0.83100    0.73420    0.43770    1.000
    O18      O        0.85840    0.75720    0.37840    1.000
    H9       H        0.89330    0.80050    0.38230    1.000
    C26      C        0.97700    0.90930    0.29080    1.000
    C27      C        0.07700    0.05100    0.29170    1.000
    O19      O        0.44770    0.37790    0.94270    1.000
    C28      C        0.33100    0.23420    0.93770    1.000
    O20      O        0.35840    0.25720    0.87840    1.000
    H10      H        0.39330    0.30050    0.88230    1.000
    C29      C        0.47700    0.40930    0.79080    1.000
    C30      C        0.57700    0.55100    0.79170    1.000
    O21      O        0.05230    0.12210    0.44270    1.000
    C31      C        0.16900    0.26580    0.43770    1.000
    O22      O        0.14160    0.24280    0.37840    1.000
    H11      H        0.10670    0.19950    0.38230    1.000
    C32      C        0.02300    0.09070    0.29080    1.000
    C33      C        0.92300    0.94900    0.29170    1.000
    O23      O        0.55230    0.62210    0.94270    1.000
    C34      C        0.66900    0.76580    0.93770    1.000
    O24      O        0.64160    0.74280    0.87840    1.000
    H12      H        0.60670    0.69950    0.88230    1.000
    C35      C        0.52300    0.59070    0.79080    1.000
    C36      C        0.42300    0.44900    0.79170    1.000
    O25      O        0.87790    0.05230    0.44270    1.000
    C37      C        0.73420    0.16900    0.43770    1.000
    O26      O        0.75720    0.14160    0.37840    1.000
    H13      H        0.80050    0.10670    0.38230    1.000
    C38      C        0.90930    0.02300    0.29080    1.000
    C39      C        0.05100    0.92300    0.29170    1.000
    O27      O        0.37790    0.55230    0.94270    1.000
    C40      C        0.23420    0.66900    0.93770    1.000
    O28      O        0.25720    0.64160    0.87840    1.000
    H14      H        0.30050    0.60670    0.88230    1.000
    C41      C        0.40930    0.52300    0.79080    1.000
    C42      C        0.55100    0.42300    0.79170    1.000
    O29      O        0.12210    0.94770    0.44270    1.000
    C43      C        0.26580    0.83100    0.43770    1.000
    O30      O        0.24280    0.85840    0.37840    1.000
    H15      H        0.19950    0.89330    0.38230    1.000
    C44      C        0.09070    0.97700    0.29080    1.000
    C45      C        0.94900    0.07700    0.29170    1.000
    O31      O        0.62210    0.44770    0.94270    1.000
    C46      C        0.76580    0.33100    0.93770    1.000
    O32      O        0.74280    0.35840    0.87840    1.000
    H16      H        0.69950    0.39330    0.88230    1.000
    C47      C        0.59070    0.47700    0.79080    1.000
    C48      C        0.44900    0.57700    0.79170    1.000
    O33      O        0.94770    0.12210    0.94270    1.000
    C49      C        0.83100    0.26580    0.93770    1.000
    O34      O        0.85840    0.24280    0.87840    1.000
    H17      H        0.89330    0.19950    0.88230    1.000
    C50      C        0.97700    0.09070    0.79080    1.000
    C51      C        0.07700    0.94900    0.79170    1.000
    O35      O        0.44770    0.62210    0.44270    1.000
    C52      C        0.33100    0.76580    0.43770    1.000
    O36      O        0.35840    0.74280    0.37840    1.000
    H18      H        0.39330    0.69950    0.38230    1.000
    C53      C        0.47700    0.59070    0.29080    1.000
    C54      C        0.57700    0.44900    0.29170    1.000
    O37      O        0.05230    0.87790    0.94270    1.000
    C55      C        0.16900    0.73420    0.93770    1.000
    O38      O        0.14160    0.75720    0.87840    1.000
    H19      H        0.10670    0.80050    0.88230    1.000
    C56      C        0.02300    0.90930    0.79080    1.000
    C57      C        0.92300    0.05100    0.79170    1.000
    O39      O        0.55230    0.37790    0.44270    1.000
    C58      C        0.66900    0.23420    0.43770    1.000
    O40      O        0.64160    0.25720    0.37840    1.000
    H20      H        0.60670    0.30050    0.38230    1.000
    C59      C        0.52300    0.40930    0.29080    1.000
    C60      C        0.42300    0.55100    0.29170    1.000
    O41      O        0.87790    0.94770    0.94270    1.000
    C61      C        0.73420    0.83100    0.93770    1.000
    O42      O        0.75720    0.85840    0.87840    1.000
    H21      H        0.80050    0.89330    0.88230    1.000
    C62      C        0.90930    0.97700    0.79080    1.000
    C63      C        0.05100    0.07700    0.79170    1.000
    O43      O        0.37790    0.44770    0.44270    1.000
    C64      C        0.23420    0.33100    0.43770    1.000
    O44      O        0.25720    0.35840    0.37840    1.000
    H22      H        0.30050    0.39330    0.38230    1.000
    C65      C        0.40930    0.47700    0.29080    1.000
    C66      C        0.55100    0.57700    0.29170    1.000
    O45      O        0.12210    0.05230    0.94270    1.000
    C67      C        0.26580    0.16900    0.93770    1.000
    O46      O        0.24280    0.14160    0.87840    1.000
    H23      H        0.19950    0.10670    0.88230    1.000
    C68      C        0.09070    0.02300    0.79080    1.000
    C69      C        0.94900    0.92300    0.79170    1.000
    O47      O        0.62210    0.55230    0.44270    1.000
    C70      C        0.76580    0.66900    0.43770    1.000
    O48      O        0.74280    0.64160    0.37840    1.000
    H24      H        0.69950    0.60670    0.38230    1.000
    C71      C        0.59070    0.52300    0.29080    1.000
    C72      C        0.44900    0.42300    0.29170    1.000
    O49      O        0.05230    0.12210    0.55730    1.000
    C73      C        0.16900    0.26580    0.56230    1.000
    O50      O        0.14160    0.24280    0.62160    1.000
    H25      H        0.10670    0.19950    0.61770    1.000
    C74      C        0.02300    0.09070    0.70920    1.000
    C75      C        0.92300    0.94900    0.70830    1.000
    O51      O        0.55230    0.62210    0.05730    1.000
    C76      C        0.66900    0.76580    0.06230    1.000
    O52      O        0.64160    0.74280    0.12160    1.000
    H26      H        0.60670    0.69950    0.11770    1.000
    C77      C        0.52300    0.59070    0.20920    1.000
    C78      C        0.42300    0.44900    0.20830    1.000
    O53      O        0.94770    0.87790    0.55730    1.000
    C79      C        0.83100    0.73420    0.56230    1.000
    O54      O        0.85840    0.75720    0.62160    1.000
    H27      H        0.89330    0.80050    0.61770    1.000
    C80      C        0.97700    0.90930    0.70920    1.000
    C81      C        0.07700    0.05100    0.70830    1.000
    O55      O        0.44770    0.37790    0.05730    1.000
    C82      C        0.33100    0.23420    0.06230    1.000
    O56      O        0.35840    0.25720    0.12160    1.000
    H28      H        0.39330    0.30050    0.11770    1.000
    C83      C        0.47700    0.40930    0.20920    1.000
    C84      C        0.57700    0.55100    0.20830    1.000
    O57      O        0.12210    0.94770    0.55730    1.000
    C85      C        0.26580    0.83100    0.56230    1.000
    O58      O        0.24280    0.85840    0.62160    1.000
    H29      H        0.19950    0.89330    0.61770    1.000
    C86      C        0.09070    0.97700    0.70920    1.000
    C87      C        0.94900    0.07700    0.70830    1.000
    O59      O        0.62210    0.44770    0.05730    1.000
    C88      C        0.76580    0.33100    0.06230    1.000
    O60      O        0.74280    0.35840    0.12160    1.000
    H30      H        0.69950    0.39330    0.11770    1.000
    C89      C        0.59070    0.47700    0.20920    1.000
    C90      C        0.44900    0.57700    0.20830    1.000
    O61      O        0.87790    0.05230    0.55730    1.000
    C91      C        0.73420    0.16900    0.56230    1.000
    O62      O        0.75720    0.14160    0.62160    1.000
    H31      H        0.80050    0.10670    0.61770    1.000
    C92      C        0.90930    0.02300    0.70920    1.000
    C93      C        0.05100    0.92300    0.70830    1.000
    O63      O        0.37790    0.55230    0.05730    1.000
    C94      C        0.23420    0.66900    0.06230    1.000
    O64      O        0.25720    0.64160    0.12160    1.000
    H32      H        0.30050    0.60670    0.11770    1.000
    C95      C        0.40930    0.52300    0.20920    1.000
    C96      C        0.55100    0.42300    0.20830    1.000
    Zn1      Zn       0.00000    0.00000    0.07719    1.000
    N1       N        0.00000    0.00000    0.18400    1.000
    Zn2      Zn       0.50000    0.50000    0.57719    1.000
    N2       N        0.50000    0.50000    0.68400    1.000
    Zn3      Zn       0.00000    0.00000    0.42281    1.000
    N3       N        0.00000    0.00000    0.31600    1.000
    Zn4      Zn       0.50000    0.50000    0.92281    1.000
    N4       N        0.50000    0.50000    0.81600    1.000
    Zn5      Zn       0.00000    0.00000    0.92281    1.000
    N5       N        0.00000    0.00000    0.81600    1.000
    Zn6      Zn       0.50000    0.50000    0.42281    1.000
    N6       N        0.50000    0.50000    0.31600    1.000
    Zn7      Zn       0.00000    0.00000    0.57719    1.000
    N7       N        0.00000    0.00000    0.68400    1.000
    Zn8      Zn       0.50000    0.50000    0.07719    1.000
    N8       N        0.50000    0.50000    0.18400    1.000
    C97      C        0.07670    0.84800    0.00000    1.000
    C98      C        0.13750    0.76990    0.00000    1.000
    C99      C        0.57670    0.34800    0.50000    1.000
    C100     C        0.63750    0.26990    0.50000    1.000
    C101     C        0.92330    0.15200    0.00000    1.000
    C102     C        0.86250    0.23010    0.00000    1.000
    C103     C        0.42330    0.65200    0.50000    1.000
    C104     C        0.36250    0.73010    0.50000    1.000
    C105     C        0.15200    0.07670    0.00000    1.000
    C106     C        0.23010    0.13750    0.00000    1.000
    C107     C        0.65200    0.57670    0.50000    1.000
    C108     C        0.73010    0.63750    0.50000    1.000
    C109     C        0.84800    0.92330    0.00000    1.000
    C110     C        0.76990    0.86250    0.00000    1.000
    C111     C        0.34800    0.42330    0.50000    1.000
    C112     C        0.26990    0.36250    0.50000    1.000
    C113     C        0.92330    0.84800    0.50000    1.000
    C114     C        0.86250    0.76990    0.50000    1.000
    C115     C        0.42330    0.34800    0.00000    1.000
    C116     C        0.36250    0.26990    0.00000    1.000
    C117     C        0.07670    0.15200    0.50000    1.000
    C118     C        0.13750    0.23010    0.50000    1.000
    C119     C        0.57670    0.65200    0.00000    1.000
    C120     C        0.63750    0.73010    0.00000    1.000
    C121     C        0.84800    0.07670    0.50000    1.000
    C122     C        0.76990    0.13750    0.50000    1.000
    C123     C        0.34800    0.57670    0.00000    1.000
    C124     C        0.26990    0.63750    0.00000    1.000
    C125     C        0.15200    0.92330    0.50000    1.000
    C126     C        0.23010    0.86250    0.50000    1.000
    C127     C        0.65200    0.42330    0.00000    1.000
    C128     C        0.73010    0.36250    0.00000    1.000
