# CIF file generated by openbabel 3.1.0, see https://openbabel.org
data_I
_chemical_name_common 'image0'
_cell_length_a 8.0319
_cell_length_b 17.9407
_cell_length_c 17.9318
_cell_angle_alpha 90
_cell_angle_beta 108.644
_cell_angle_gamma 90
_space_group_name_H-M_alt 'P 1'
_space_group_name_Hall 'P 1'
loop_
    _symmetry_equiv_pos_as_xyz
    x,y,z
loop_
    _atom_site_label
    _atom_site_type_symbol
    _atom_site_fract_x
    _atom_site_fract_y
    _atom_site_fract_z
    _atom_site_occupancy
    Co1      Co       0.12685    0.80998    0.23644    1.000
    O1       O        0.30520    0.74940    0.31503    1.000
    O2       O        0.10370    0.77120    0.37000    1.000
    O3       O        0.73170    0.57990    0.49060    1.000
    O4       O        0.20650    0.68454    0.64387    1.000
    O5       O        0.44110    0.61710    0.70530    1.000
    N1       N        0.05410    0.91340    0.25730    1.000
    N2       N        0.90620    0.00390    0.28540    1.000
    N3       N        0.09650    0.25160    0.31380    1.000
    N4       N        0.35280    0.19770    0.33470    1.000
    C1       C        0.34960    0.69730    0.44160    1.000
    C2       C        0.30050    0.69430    0.50920    1.000
    H1       H        0.20190    0.72030    0.51140    1.000
    C3       C        0.39760    0.65300    0.57310    1.000
    C4       C        0.54520    0.61320    0.57000    1.000
    H2       H        0.61080    0.58500    0.61290    1.000
    C5       C        0.59220    0.61660    0.50140    1.000
    C6       C        0.49760    0.65870    0.43880    1.000
    H3       H        0.53230    0.66150    0.39410    1.000
    C7       C        0.84000    0.53510    0.55040    1.000
    H4       H        0.86870    0.55620    0.60280    1.000
    H5       H        0.78340    0.48700    0.54840    1.000
    C8       C        0.92130    0.93040    0.27930    1.000
    H6       H        0.84550    0.89580    0.28970    1.000
    C9       C        0.02840    0.03610    0.25880    1.000
    H7       H        0.04490    0.08680    0.25280    1.000
    C10      C        0.12150    0.97920    0.24290    1.000
    H8       H        0.21730    0.98430    0.22480    1.000
    C11      C        0.78090    0.04320    0.32200    1.000
    H9       H        0.74420    0.00990    0.35630    1.000
    H10      H        0.83550    0.08700    0.35160    1.000
    C12      C        0.64100    0.06260    0.25670    1.000
    H11      H        0.59860    0.01870    0.22470    1.000
    H12      H        0.67990    0.09830    0.22520    1.000
    C13      C        0.22370    0.23520    0.28420    1.000
    H13      H        0.22230    0.24850    0.23380    1.000
    C14      C        0.14920    0.22190    0.38800    1.000
    H14      H        0.08700    0.22380    0.42360    1.000
    C15      C        0.30820    0.18910    0.40050    1.000
    H15      H        0.37440    0.16500    0.44630    1.000
    C16      C        0.51220    0.16970    0.31920    1.000
    H16      H        0.54620    0.20480    0.28550    1.000
    H17      H        0.60780    0.16650    0.36850    1.000
    C17      C        0.48440    0.09800    0.28240    1.000
    H18      H        0.38180    0.10140    0.23580    1.000
    H19      H        0.45610    0.06340    0.31810    1.000
    C18      C        0.34790    0.65040    0.64670    1.000
    C19      C        0.24440    0.74150    0.37180    1.000
    C20      C        0.02010    0.53080    0.52970    1.000
    H20      H        0.13430    0.52690    0.56980    1.000
    H21      H        0.01860    0.56690    0.48920    1.000
    Co2      Co       0.87315    0.30998    0.26356    1.000
    O6       O        0.69480    0.24940    0.18497    1.000
    O7       O        0.89630    0.27120    0.13000    1.000
    O8       O        0.26830    0.07990    0.00940    1.000
    O9       O        0.79350    0.18454    0.85613    1.000
    O10      O        0.55890    0.11710    0.79470    1.000
    N5       N        0.94590    0.41340    0.24270    1.000
    N6       N        0.09380    0.50390    0.21460    1.000
    N7       N        0.90350    0.75160    0.18620    1.000
    N8       N        0.64720    0.69770    0.16530    1.000
    C21      C        0.65040    0.19730    0.05840    1.000
    C22      C        0.69950    0.19430    0.99080    1.000
    H22      H        0.79810    0.22030    0.98860    1.000
    C23      C        0.60240    0.15300    0.92690    1.000
    C24      C        0.45480    0.11320    0.93000    1.000
    H23      H        0.38920    0.08500    0.88710    1.000
    C25      C        0.40780    0.11660    0.99860    1.000
    C26      C        0.50240    0.15870    0.06120    1.000
    H24      H        0.46770    0.16150    0.10590    1.000
    C27      C        0.16000    0.03510    0.94960    1.000
    H25      H        0.13130    0.05620    0.89720    1.000
    H26      H        0.21660    0.98700    0.95160    1.000
    C28      C        0.07870    0.43040    0.22070    1.000
    H27      H        0.15450    0.39580    0.21030    1.000
    C29      C        0.97160    0.53610    0.24120    1.000
    H28      H        0.95510    0.58680    0.24720    1.000
    C30      C        0.87850    0.47920    0.25710    1.000
    H29      H        0.78270    0.48430    0.27520    1.000
    C31      C        0.21910    0.54320    0.17800    1.000
    H30      H        0.25580    0.50990    0.14370    1.000
    H31      H        0.16450    0.58700    0.14840    1.000
    C32      C        0.35900    0.56260    0.24330    1.000
    H32      H        0.40140    0.51870    0.27530    1.000
    H33      H        0.32010    0.59830    0.27480    1.000
    C33      C        0.77630    0.73520    0.21580    1.000
    H34      H        0.77770    0.74850    0.26620    1.000
    C34      C        0.85080    0.72190    0.11200    1.000
    H35      H        0.91300    0.72380    0.07640    1.000
    C35      C        0.69180    0.68910    0.09950    1.000
    H36      H        0.62560    0.66500    0.05370    1.000
    C36      C        0.48780    0.66970    0.18080    1.000
    H37      H        0.45380    0.70480    0.21450    1.000
    H38      H        0.39220    0.66650    0.13150    1.000
    C37      C        0.51560    0.59800    0.21760    1.000
    H39      H        0.61820    0.60140    0.26420    1.000
    H40      H        0.54390    0.56340    0.18190    1.000
    C38      C        0.65210    0.15040    0.85330    1.000
    C39      C        0.75560    0.24150    0.12820    1.000
    C40      C        0.97990    0.03080    0.97030    1.000
    H41      H        0.86570    0.02690    0.93020    1.000
    H42      H        0.98140    0.06690    0.01080    1.000
    Co3      Co       0.87315    0.19002    0.76356    1.000
    O11      O        0.69480    0.25060    0.68497    1.000
    O12      O        0.89630    0.22880    0.63000    1.000
    O13      O        0.26830    0.42010    0.50940    1.000
    O14      O        0.79350    0.31546    0.35613    1.000
    O15      O        0.55890    0.38290    0.29470    1.000
    N9       N        0.94590    0.08660    0.74270    1.000
    N10      N        0.09380    0.99610    0.71460    1.000
    N11      N        0.90350    0.74840    0.68620    1.000
    N12      N        0.64720    0.80230    0.66530    1.000
    C41      C        0.65040    0.30270    0.55840    1.000
    C42      C        0.69950    0.30570    0.49080    1.000
    H43      H        0.79810    0.27970    0.48860    1.000
    C43      C        0.60240    0.34700    0.42690    1.000
    C44      C        0.45480    0.38680    0.43000    1.000
    H44      H        0.38920    0.41500    0.38710    1.000
    C45      C        0.40780    0.38340    0.49860    1.000
    C46      C        0.50240    0.34130    0.56120    1.000
    H45      H        0.46770    0.33850    0.60590    1.000
    C47      C        0.16000    0.46490    0.44960    1.000
    H46      H        0.13130    0.44380    0.39720    1.000
    H47      H        0.21660    0.51300    0.45160    1.000
    C48      C        0.07870    0.06960    0.72070    1.000
    H48      H        0.15450    0.10420    0.71030    1.000
    C49      C        0.97160    0.96390    0.74120    1.000
    H49      H        0.95510    0.91320    0.74720    1.000
    C50      C        0.87850    0.02080    0.75710    1.000
    H50      H        0.78270    0.01570    0.77520    1.000
    C51      C        0.21910    0.95680    0.67800    1.000
    H51      H        0.25580    0.99010    0.64370    1.000
    H52      H        0.16450    0.91300    0.64840    1.000
    C52      C        0.35900    0.93740    0.74330    1.000
    H53      H        0.40140    0.98130    0.77530    1.000
    H54      H        0.32010    0.90170    0.77480    1.000
    C53      C        0.77630    0.76480    0.71580    1.000
    H55      H        0.77770    0.75150    0.76620    1.000
    C54      C        0.85080    0.77810    0.61200    1.000
    H56      H        0.91300    0.77620    0.57640    1.000
    C55      C        0.69180    0.81090    0.59950    1.000
    H57      H        0.62560    0.83500    0.55370    1.000
    C56      C        0.48780    0.83030    0.68080    1.000
    H58      H        0.45380    0.79520    0.71450    1.000
    H59      H        0.39220    0.83350    0.63150    1.000
    C57      C        0.51560    0.90200    0.71760    1.000
    H60      H        0.61820    0.89860    0.76420    1.000
    H61      H        0.54390    0.93660    0.68190    1.000
    C58      C        0.65210    0.34960    0.35330    1.000
    C59      C        0.75560    0.25850    0.62820    1.000
    C60      C        0.97990    0.46920    0.47030    1.000
    H62      H        0.86570    0.47310    0.43020    1.000
    H63      H        0.98140    0.43310    0.51080    1.000
    Co4      Co       0.12685    0.69002    0.73644    1.000
    O16      O        0.30520    0.75060    0.81503    1.000
    O17      O        0.10370    0.72880    0.87000    1.000
    O18      O        0.73170    0.92010    0.99060    1.000
    O19      O        0.20650    0.81546    0.14387    1.000
    O20      O        0.44110    0.88290    0.20530    1.000
    N13      N        0.05410    0.58660    0.75730    1.000
    N14      N        0.90620    0.49610    0.78540    1.000
    N15      N        0.09650    0.24840    0.81380    1.000
    N16      N        0.35280    0.30230    0.83470    1.000
    C61      C        0.34960    0.80270    0.94160    1.000
    C62      C        0.30050    0.80570    0.00920    1.000
    H64      H        0.20190    0.77970    0.01140    1.000
    C63      C        0.39760    0.84700    0.07310    1.000
    C64      C        0.54520    0.88680    0.07000    1.000
    H65      H        0.61080    0.91500    0.11290    1.000
    C65      C        0.59220    0.88340    0.00140    1.000
    C66      C        0.49760    0.84130    0.93880    1.000
    H66      H        0.53230    0.83850    0.89410    1.000
    C67      C        0.84000    0.96490    0.05040    1.000
    H67      H        0.86870    0.94380    0.10280    1.000
    H68      H        0.78340    0.01300    0.04840    1.000
    C68      C        0.92130    0.56960    0.77930    1.000
    H69      H        0.84550    0.60420    0.78970    1.000
    C69      C        0.02840    0.46390    0.75880    1.000
    H70      H        0.04490    0.41320    0.75280    1.000
    C70      C        0.12150    0.52080    0.74290    1.000
    H71      H        0.21730    0.51570    0.72480    1.000
    C71      C        0.78090    0.45680    0.82200    1.000
    H72      H        0.74420    0.49010    0.85630    1.000
    H73      H        0.83550    0.41300    0.85160    1.000
    C72      C        0.64100    0.43740    0.75670    1.000
    H74      H        0.59860    0.48130    0.72470    1.000
    H75      H        0.67990    0.40170    0.72520    1.000
    C73      C        0.22370    0.26480    0.78420    1.000
    H76      H        0.22230    0.25150    0.73380    1.000
    C74      C        0.14920    0.27810    0.88800    1.000
    H77      H        0.08700    0.27620    0.92360    1.000
    C75      C        0.30820    0.31090    0.90050    1.000
    H78      H        0.37440    0.33500    0.94630    1.000
    C76      C        0.51220    0.33030    0.81920    1.000
    H79      H        0.54620    0.29520    0.78550    1.000
    H80      H        0.60780    0.33350    0.86850    1.000
    C77      C        0.48440    0.40200    0.78240    1.000
    H81      H        0.38180    0.39860    0.73580    1.000
    H82      H        0.45610    0.43660    0.81810    1.000
    C78      C        0.34790    0.84960    0.14670    1.000
    C79      C        0.24440    0.75850    0.87180    1.000
    C80      C        0.02010    0.96920    0.02970    1.000
    H83      H        0.13430    0.97310    0.06980    1.000
    H84      H        0.01860    0.93310    0.98920    1.000
