# CIF file generated by openbabel 3.1.0, see https://openbabel.org
data_I
_chemical_name_common 'image0'
_cell_length_a 16.0121
_cell_length_b 7.5502
_cell_length_c 27.8153
_cell_angle_alpha 90
_cell_angle_beta 99.733
_cell_angle_gamma 90
_space_group_name_H-M_alt 'P 1'
_space_group_name_Hall 'P 1'
loop_
    _symmetry_equiv_pos_as_xyz
    x,y,z
loop_
    _atom_site_label
    _atom_site_type_symbol
    _atom_site_fract_x
    _atom_site_fract_y
    _atom_site_fract_z
    _atom_site_occupancy
    Cd1      Cd       0.21561    0.52604    0.08014    1.000
    Cd2      Cd       0.15100    0.04265    0.04651    1.000
    O1       O        0.17731    0.26370    0.10964    1.000
    O2       O        0.30694    0.31820    0.14816    1.000
    O3       O        0.24574    0.90720    0.10858    1.000
    O4       O        0.21943    0.66970    0.15094    1.000
    O5       O        0.90343    0.19900    0.44264    1.000
    O6       O        0.96237    0.44650    0.42239    1.000
    O7       O        0.08121    0.24000    0.49984    1.000
    O8       O        0.17962    0.03060    0.50002    1.000
    N1       N        0.34271    0.60810    0.05865    1.000
    N2       N        0.72262    0.90550    0.98336    1.000
    F1       F        0.32360    0.76280    0.32262    1.000
    F2       F        0.30796    0.98840    0.36690    1.000
    F3       F        0.27510    0.72910    0.38927    1.000
    F4       F        0.11550    0.61930    0.35374    1.000
    F5       F        0.06920    0.69120    0.27943    1.000
    F6       F        0.18860    0.55770    0.29804    1.000
    C1       C        0.23870    0.24120    0.14517    1.000
    C2       C        0.22270    0.13100    0.18848    1.000
    C3       C        0.21660    0.94730    0.18939    1.000
    C4       C        0.20300    0.86200    0.23186    1.000
    H1       H        0.20050    0.73900    0.23240    1.000
    C5       C        0.19320    0.95610    0.27338    1.000
    C6       C        0.20020    0.13940    0.27210    1.000
    H2       H        0.19520    0.20520    0.29970    1.000
    C7       C        0.21460    0.22560    0.23041    1.000
    H3       H        0.21880    0.34840    0.23040    1.000
    C8       C        0.22830    0.83380    0.14643    1.000
    C9       C        0.18220    0.86400    0.32154    1.000
    C10      C        0.13850    0.68230    0.31327    1.000
    C11      C        0.27280    0.83700    0.35067    1.000
    C12      C        0.12630    0.97530    0.35052    1.000
    C13      C        0.05240    0.05150    0.32544    1.000
    H4       H        0.03840    0.03630    0.29190    1.000
    C14      C        0.99990    0.14900    0.34964    1.000
    H5       H        0.95080    0.19860    0.33220    1.000
    C15      C        0.01930    0.17440    0.39966    1.000
    C16      C        0.09210    0.09660    0.42539    1.000
    C17      C        0.14460    0.99720    0.40051    1.000
    H6       H        0.19300    0.94470    0.41790    1.000
    C18      C        0.95860    0.27960    0.42417    1.000
    C19      C        0.11890    0.12350    0.47959    1.000
    C20      C        0.34580    0.65830    0.01294    1.000
    H7       H        0.29630    0.65310    0.99000    1.000
    C21      C        0.41870    0.71740    0.99804    1.000
    H8       H        0.41720    0.75070    0.96570    1.000
    C22      C        0.49410    0.72770    0.03049    1.000
    C23      C        0.49050    0.67690    0.07762    1.000
    H9       H        0.53890    0.68160    0.10140    1.000
    C24      C        0.41450    0.61870    0.08959    1.000
    H10      H        0.41420    0.58480    0.12170    1.000
    C25      C        0.57320    0.79170    0.01466    1.000
    C26      C        0.57740    0.81700    0.96571    1.000
    H11      H        0.52990    0.79560    0.94220    1.000
    C27      C        0.65180    0.87380    0.95162    1.000
    H12      H        0.65250    0.89070    0.91860    1.000
    C28      C        0.71840    0.88390    0.03067    1.000
    H13      H        0.76670    0.90740    0.05340    1.000
    C29      C        0.64640    0.82870    0.04776    1.000
    H14      H        0.64700    0.81640    0.08110    1.000
    Cd3      Cd       0.78439    0.02604    0.41986    1.000
    Cd4      Cd       0.84900    0.54265    0.45349    1.000
    O9       O        0.82269    0.76370    0.39036    1.000
    O10      O        0.69306    0.81820    0.35184    1.000
    O11      O        0.75426    0.40720    0.39142    1.000
    O12      O        0.78057    0.16970    0.34906    1.000
    O13      O        0.09657    0.69900    0.05736    1.000
    O14      O        0.03763    0.94650    0.07761    1.000
    O15      O        0.91879    0.74000    0.00016    1.000
    O16      O        0.82038    0.53060    0.99998    1.000
    N3       N        0.65729    0.10810    0.44135    1.000
    N4       N        0.27738    0.40550    0.51664    1.000
    F7       F        0.67640    0.26280    0.17738    1.000
    F8       F        0.69204    0.48840    0.13310    1.000
    F9       F        0.72490    0.22910    0.11073    1.000
    F10      F        0.88450    0.11930    0.14626    1.000
    F11      F        0.93080    0.19120    0.22057    1.000
    F12      F        0.81140    0.05770    0.20196    1.000
    C30      C        0.76130    0.74120    0.35483    1.000
    C31      C        0.77730    0.63100    0.31152    1.000
    C32      C        0.78340    0.44730    0.31061    1.000
    C33      C        0.79700    0.36200    0.26814    1.000
    H15      H        0.79950    0.23900    0.26760    1.000
    C34      C        0.80680    0.45610    0.22662    1.000
    C35      C        0.79980    0.63940    0.22790    1.000
    H16      H        0.80480    0.70520    0.20030    1.000
    C36      C        0.78540    0.72560    0.26959    1.000
    H17      H        0.78120    0.84840    0.26960    1.000
    C37      C        0.77170    0.33380    0.35357    1.000
    C38      C        0.81780    0.36400    0.17846    1.000
    C39      C        0.86150    0.18230    0.18673    1.000
    C40      C        0.72720    0.33700    0.14933    1.000
    C41      C        0.87370    0.47530    0.14948    1.000
    C42      C        0.94760    0.55150    0.17456    1.000
    H18      H        0.96160    0.53630    0.20810    1.000
    C43      C        0.00010    0.64900    0.15036    1.000
    H19      H        0.04920    0.69860    0.16780    1.000
    C44      C        0.98070    0.67440    0.10034    1.000
    C45      C        0.90790    0.59660    0.07461    1.000
    C46      C        0.85540    0.49720    0.09949    1.000
    H20      H        0.80700    0.44470    0.08210    1.000
    C47      C        0.04140    0.77960    0.07583    1.000
    C48      C        0.88110    0.62350    0.02041    1.000
    C49      C        0.65420    0.15830    0.48706    1.000
    H21      H        0.70370    0.15310    0.51000    1.000
    C50      C        0.58130    0.21740    0.50196    1.000
    H22      H        0.58280    0.25070    0.53430    1.000
    C51      C        0.50590    0.22770    0.46951    1.000
    C52      C        0.50950    0.17690    0.42238    1.000
    H23      H        0.46110    0.18160    0.39860    1.000
    C53      C        0.58550    0.11870    0.41041    1.000
    H24      H        0.58580    0.08480    0.37830    1.000
    C54      C        0.42680    0.29170    0.48534    1.000
    C55      C        0.42260    0.31700    0.53429    1.000
    H25      H        0.47010    0.29560    0.55780    1.000
    C56      C        0.34820    0.37380    0.54838    1.000
    H26      H        0.34750    0.39070    0.58140    1.000
    C57      C        0.28160    0.38390    0.46933    1.000
    H27      H        0.23330    0.40740    0.44660    1.000
    C58      C        0.35360    0.32870    0.45224    1.000
    H28      H        0.35300    0.31640    0.41890    1.000
    Cd5      Cd       0.78439    0.47396    0.91986    1.000
    Cd6      Cd       0.84900    0.95735    0.95349    1.000
    O17      O        0.82269    0.73630    0.89036    1.000
    O18      O        0.69306    0.68180    0.85184    1.000
    O19      O        0.75426    0.09280    0.89142    1.000
    O20      O        0.78057    0.33030    0.84906    1.000
    O21      O        0.09657    0.80100    0.55736    1.000
    O22      O        0.03763    0.55350    0.57761    1.000
    O23      O        0.91879    0.76000    0.50016    1.000
    O24      O        0.82038    0.96940    0.49998    1.000
    N5       N        0.65729    0.39190    0.94135    1.000
    N6       N        0.27738    0.09450    0.01664    1.000
    F13      F        0.67640    0.23720    0.67738    1.000
    F14      F        0.69204    0.01160    0.63310    1.000
    F15      F        0.72490    0.27090    0.61073    1.000
    F16      F        0.88450    0.38070    0.64626    1.000
    F17      F        0.93080    0.30880    0.72057    1.000
    F18      F        0.81140    0.44230    0.70196    1.000
    C59      C        0.76130    0.75880    0.85483    1.000
    C60      C        0.77730    0.86900    0.81152    1.000
    C61      C        0.78340    0.05270    0.81061    1.000
    C62      C        0.79700    0.13800    0.76814    1.000
    H29      H        0.79950    0.26100    0.76760    1.000
    C63      C        0.80680    0.04390    0.72662    1.000
    C64      C        0.79980    0.86060    0.72790    1.000
    H30      H        0.80480    0.79480    0.70030    1.000
    C65      C        0.78540    0.77440    0.76959    1.000
    H31      H        0.78120    0.65160    0.76960    1.000
    C66      C        0.77170    0.16620    0.85357    1.000
    C67      C        0.81780    0.13600    0.67846    1.000
    C68      C        0.86150    0.31770    0.68673    1.000
    C69      C        0.72720    0.16300    0.64933    1.000
    C70      C        0.87370    0.02470    0.64948    1.000
    C71      C        0.94760    0.94850    0.67456    1.000
    H32      H        0.96160    0.96370    0.70810    1.000
    C72      C        0.00010    0.85100    0.65036    1.000
    H33      H        0.04920    0.80140    0.66780    1.000
    C73      C        0.98070    0.82560    0.60034    1.000
    C74      C        0.90790    0.90340    0.57461    1.000
    C75      C        0.85540    0.00280    0.59949    1.000
    H34      H        0.80700    0.05530    0.58210    1.000
    C76      C        0.04140    0.72040    0.57583    1.000
    C77      C        0.88110    0.87650    0.52041    1.000
    C78      C        0.65420    0.34170    0.98706    1.000
    H35      H        0.70370    0.34690    0.01000    1.000
    C79      C        0.58130    0.28260    0.00196    1.000
    H36      H        0.58280    0.24930    0.03430    1.000
    C80      C        0.50590    0.27230    0.96951    1.000
    C81      C        0.50950    0.32310    0.92238    1.000
    H37      H        0.46110    0.31840    0.89860    1.000
    C82      C        0.58550    0.38130    0.91041    1.000
    H38      H        0.58580    0.41520    0.87830    1.000
    C83      C        0.42680    0.20830    0.98534    1.000
    C84      C        0.42260    0.18300    0.03429    1.000
    H39      H        0.47010    0.20440    0.05780    1.000
    C85      C        0.34820    0.12620    0.04838    1.000
    H40      H        0.34750    0.10930    0.08140    1.000
    C86      C        0.28160    0.11610    0.96933    1.000
    H41      H        0.23330    0.09260    0.94660    1.000
    C87      C        0.35360    0.17130    0.95224    1.000
    H42      H        0.35300    0.18360    0.91890    1.000
    Cd7      Cd       0.21561    0.97396    0.58014    1.000
    Cd8      Cd       0.15100    0.45735    0.54651    1.000
    O25      O        0.17731    0.23630    0.60964    1.000
    O26      O        0.30694    0.18180    0.64816    1.000
    O27      O        0.24574    0.59280    0.60858    1.000
    O28      O        0.21943    0.83030    0.65094    1.000
    O29      O        0.90343    0.30100    0.94264    1.000
    O30      O        0.96237    0.05350    0.92239    1.000
    O31      O        0.08121    0.26000    0.99984    1.000
    O32      O        0.17962    0.46940    0.00002    1.000
    N7       N        0.34271    0.89190    0.55865    1.000
    N8       N        0.72262    0.59450    0.48336    1.000
    F19      F        0.32360    0.73720    0.82262    1.000
    F20      F        0.30796    0.51160    0.86690    1.000
    F21      F        0.27510    0.77090    0.88927    1.000
    F22      F        0.11550    0.88070    0.85374    1.000
    F23      F        0.06920    0.80880    0.77943    1.000
    F24      F        0.18860    0.94230    0.79804    1.000
    C88      C        0.23870    0.25880    0.64517    1.000
    C89      C        0.22270    0.36900    0.68848    1.000
    C90      C        0.21660    0.55270    0.68939    1.000
    C91      C        0.20300    0.63800    0.73186    1.000
    H43      H        0.20050    0.76100    0.73240    1.000
    C92      C        0.19320    0.54390    0.77338    1.000
    C93      C        0.20020    0.36060    0.77210    1.000
    H44      H        0.19520    0.29480    0.79970    1.000
    C94      C        0.21460    0.27440    0.73041    1.000
    H45      H        0.21880    0.15160    0.73040    1.000
    C95      C        0.22830    0.66620    0.64643    1.000
    C96      C        0.18220    0.63600    0.82154    1.000
    C97      C        0.13850    0.81770    0.81327    1.000
    C98      C        0.27280    0.66300    0.85067    1.000
    C99      C        0.12630    0.52470    0.85052    1.000
    C100     C        0.05240    0.44850    0.82544    1.000
    H46      H        0.03840    0.46370    0.79190    1.000
    C101     C        0.99990    0.35100    0.84964    1.000
    H47      H        0.95080    0.30140    0.83220    1.000
    C102     C        0.01930    0.32560    0.89966    1.000
    C103     C        0.09210    0.40340    0.92539    1.000
    C104     C        0.14460    0.50280    0.90051    1.000
    H48      H        0.19300    0.55530    0.91790    1.000
    C105     C        0.95860    0.22040    0.92417    1.000
    C106     C        0.11890    0.37650    0.97959    1.000
    C107     C        0.34580    0.84170    0.51294    1.000
    H49      H        0.29630    0.84690    0.49000    1.000
    C108     C        0.41870    0.78260    0.49804    1.000
    H50      H        0.41720    0.74930    0.46570    1.000
    C109     C        0.49410    0.77230    0.53049    1.000
    C110     C        0.49050    0.82310    0.57762    1.000
    H51      H        0.53890    0.81840    0.60140    1.000
    C111     C        0.41450    0.88130    0.58959    1.000
    H52      H        0.41420    0.91520    0.62170    1.000
    C112     C        0.57320    0.70830    0.51466    1.000
    C113     C        0.57740    0.68300    0.46571    1.000
    H53      H        0.52990    0.70440    0.44220    1.000
    C114     C        0.65180    0.62620    0.45162    1.000
    H54      H        0.65250    0.60930    0.41860    1.000
    C115     C        0.71840    0.61610    0.53067    1.000
    H55      H        0.76670    0.59260    0.55340    1.000
    C116     C        0.64640    0.67130    0.54776    1.000
    H56      H        0.64700    0.68360    0.58110    1.000
