# CIF file generated by openbabel 3.1.0, see https://openbabel.org
data_I
_chemical_name_common 'image0'
_cell_length_a 9.6084
_cell_length_b 15.8032
_cell_length_c 23.7927
_cell_angle_alpha 90
_cell_angle_beta 96.84
_cell_angle_gamma 90
_space_group_name_H-M_alt 'P 1'
_space_group_name_Hall 'P 1'
loop_
    _symmetry_equiv_pos_as_xyz
    x,y,z
loop_
    _atom_site_label
    _atom_site_type_symbol
    _atom_site_fract_x
    _atom_site_fract_y
    _atom_site_fract_z
    _atom_site_occupancy
    Y1       Y        0.86919    0.67458    0.02199    1.000
    O1       O        0.71170    0.57110    0.98170    1.000
    O2       O        0.11210    0.69320    0.04490    1.000
    O3       O        0.95060    0.54280    0.06190    1.000
    O4       O        0.18680    0.75420    0.12700    1.000
    O5       O        0.01830    0.41160    0.04350    1.000
    N1       N        0.62970    0.67190    0.06140    1.000
    N2       N        0.45390    0.73200    0.11170    1.000
    C1       C        0.53010    0.63230    0.02610    1.000
    C2       C        0.20540    0.71560    0.08290    1.000
    C3       C        0.38820    0.64120    0.03200    1.000
    C4       C        0.35520    0.69390    0.07470    1.000
    O6       O        0.49100    0.55720    0.94090    1.000
    C5       C        0.58100    0.58210    0.97940    1.000
    C6       C        0.58680    0.71910    0.10320    1.000
    C7       C        0.98970    0.48690    0.03060    1.000
    H1       H        0.32100    0.60600    0.01300    1.000
    H2       H        0.64600    0.75300    0.12700    1.000
    Y2       Y        0.36614    0.83480    0.85758    1.000
    O7       O        0.20670    0.93630    0.81640    1.000
    O8       O        0.60710    0.81610    0.88230    1.000
    O9       O        0.44300    0.96960    0.89440    1.000
    O10      O        0.56400    0.04040    0.76990    1.000
    O11      O        0.68740    0.73700    0.95640    1.000
    O12      O        0.47480    0.91510    0.79050    1.000
    O13      O        0.52680    0.09650    0.87400    1.000
    N3       N        0.12510    0.83120    0.89340    1.000
    N4       N        0.95230    0.76680    0.94140    1.000
    C8       C        0.02540    0.87190    0.85930    1.000
    C9       C        0.70270    0.78570    0.91650    1.000
    C10      C        0.88460    0.86250    0.86650    1.000
    C11      C        0.85330    0.80780    0.90680    1.000
    O14      O        0.98510    0.94990    0.77470    1.000
    C12      C        0.07410    0.92430    0.81200    1.000
    C13      C        0.08340    0.78070    0.93260    1.000
    C14      C        0.49420    0.02230    0.86240    1.000
    C15      C        0.51350    0.99010    0.80220    1.000
    H3       H        0.81600    0.88600    0.84500    1.000
    H4       H        0.15600    0.75800    0.95200    1.000
    Y3       Y        0.36551    0.82187    0.19299    1.000
    O15      O        0.20720    0.92290    0.15050    1.000
    O16      O        0.60640    0.80780    0.21700    1.000
    O17      O        0.68770    0.72950    0.29230    1.000
    N5       N        0.12310    0.82180    0.22810    1.000
    N6       N        0.94990    0.75860    0.27740    1.000
    C16      C        0.02530    0.86400    0.19550    1.000
    C17      C        0.70220    0.77750    0.25210    1.000
    C18      C        0.88330    0.85530    0.20210    1.000
    C19      C        0.85110    0.80080    0.24340    1.000
    O18      O        0.98730    0.94080    0.10950    1.000
    C20      C        0.07580    0.91390    0.14890    1.000
    C21      C        0.08020    0.77150    0.26810    1.000
    H5       H        0.79900    0.88400    0.17700    1.000
    H6       H        0.15000    0.74100    0.29100    1.000
    Y4       Y        0.63081    0.17458    0.47801    1.000
    O19      O        0.78830    0.07110    0.51830    1.000
    O20      O        0.38790    0.19320    0.45510    1.000
    O21      O        0.54940    0.04280    0.43810    1.000
    O22      O        0.31320    0.25420    0.37300    1.000
    O23      O        0.48170    0.91160    0.45650    1.000
    N7       N        0.87030    0.17190    0.43860    1.000
    N8       N        0.04610    0.23200    0.38830    1.000
    C22      C        0.96990    0.13230    0.47390    1.000
    C23      C        0.29460    0.21560    0.41710    1.000
    C24      C        0.11180    0.14120    0.46800    1.000
    C25      C        0.14480    0.19390    0.42530    1.000
    O24      O        0.00900    0.05720    0.55910    1.000
    C26      C        0.91900    0.08210    0.52060    1.000
    C27      C        0.91320    0.21910    0.39680    1.000
    C28      C        0.51030    0.98690    0.46940    1.000
    H7       H        0.17900    0.10600    0.48700    1.000
    H8       H        0.85400    0.25300    0.37300    1.000
    Y5       Y        0.13386    0.33480    0.64242    1.000
    O25      O        0.29330    0.43630    0.68360    1.000
    O26      O        0.89290    0.31610    0.61770    1.000
    O27      O        0.05700    0.46960    0.60560    1.000
    O28      O        0.93600    0.54040    0.73010    1.000
    O29      O        0.81260    0.23700    0.54360    1.000
    O30      O        0.02520    0.41510    0.70950    1.000
    O31      O        0.97320    0.59650    0.62600    1.000
    N9       N        0.37490    0.33120    0.60660    1.000
    N10      N        0.54770    0.26680    0.55860    1.000
    C29      C        0.47460    0.37190    0.64070    1.000
    C30      C        0.79730    0.28570    0.58350    1.000
    C31      C        0.61540    0.36250    0.63350    1.000
    C32      C        0.64670    0.30780    0.59320    1.000
    O32      O        0.51490    0.44990    0.72530    1.000
    C33      C        0.42590    0.42430    0.68800    1.000
    C34      C        0.41660    0.28070    0.56740    1.000
    C35      C        0.00580    0.52230    0.63760    1.000
    C36      C        0.98650    0.49010    0.69780    1.000
    H9       H        0.68400    0.38600    0.65500    1.000
    H10      H        0.34400    0.25800    0.54800    1.000
    Y6       Y        0.13449    0.32187    0.30701    1.000
    O33      O        0.29280    0.42290    0.34950    1.000
    O34      O        0.89360    0.30780    0.28300    1.000
    O35      O        0.81230    0.22950    0.20770    1.000
    N11      N        0.37690    0.32180    0.27190    1.000
    N12      N        0.55010    0.25860    0.22260    1.000
    C37      C        0.47470    0.36400    0.30450    1.000
    C38      C        0.79780    0.27750    0.24790    1.000
    C39      C        0.61670    0.35530    0.29790    1.000
    C40      C        0.64890    0.30080    0.25660    1.000
    O36      O        0.51270    0.44080    0.39050    1.000
    C41      C        0.42420    0.41390    0.35110    1.000
    C42      C        0.41980    0.27150    0.23190    1.000
    H11      H        0.70100    0.38400    0.32300    1.000
    H12      H        0.35000    0.24100    0.20900    1.000
    Y7       Y        0.13081    0.32542    0.97801    1.000
    O37      O        0.28830    0.42890    0.01830    1.000
    O38      O        0.88790    0.30680    0.95510    1.000
    O39      O        0.04940    0.45720    0.93810    1.000
    O40      O        0.81320    0.24580    0.87300    1.000
    O41      O        0.98170    0.58840    0.95650    1.000
    N13      N        0.37030    0.32810    0.93860    1.000
    N14      N        0.54610    0.26800    0.88830    1.000
    C43      C        0.46990    0.36770    0.97390    1.000
    C44      C        0.79460    0.28440    0.91710    1.000
    C45      C        0.61180    0.35880    0.96800    1.000
    C46      C        0.64480    0.30610    0.92530    1.000
    O42      O        0.50900    0.44280    0.05910    1.000
    C47      C        0.41900    0.41790    0.02060    1.000
    C48      C        0.41320    0.28090    0.89680    1.000
    C49      C        0.01030    0.51310    0.96940    1.000
    H13      H        0.67900    0.39400    0.98700    1.000
    H14      H        0.35400    0.24700    0.87300    1.000
    Y8       Y        0.63386    0.16520    0.14242    1.000
    O43      O        0.79330    0.06370    0.18360    1.000
    O44      O        0.39290    0.18390    0.11770    1.000
    O45      O        0.55700    0.03040    0.10560    1.000
    O46      O        0.43600    0.95960    0.23010    1.000
    O47      O        0.31260    0.26300    0.04360    1.000
    O48      O        0.52520    0.08490    0.20950    1.000
    O49      O        0.47320    0.90350    0.12600    1.000
    N15      N        0.87490    0.16880    0.10660    1.000
    N16      N        0.04770    0.23320    0.05860    1.000
    C50      C        0.97460    0.12810    0.14070    1.000
    C51      C        0.29730    0.21430    0.08350    1.000
    C52      C        0.11540    0.13750    0.13350    1.000
    C53      C        0.14670    0.19220    0.09320    1.000
    O50      O        0.01490    0.05010    0.22530    1.000
    C54      C        0.92590    0.07570    0.18800    1.000
    C55      C        0.91660    0.21930    0.06740    1.000
    C56      C        0.50580    0.97770    0.13760    1.000
    C57      C        0.48650    0.00990    0.19780    1.000
    H15      H        0.18400    0.11400    0.15500    1.000
    H16      H        0.84400    0.24200    0.04800    1.000
    Y9       Y        0.63449    0.17813    0.80701    1.000
    O51      O        0.79280    0.07710    0.84950    1.000
    O52      O        0.39360    0.19220    0.78300    1.000
    O53      O        0.31230    0.27050    0.70770    1.000
    N17      N        0.87690    0.17820    0.77190    1.000
    N18      N        0.05010    0.24140    0.72260    1.000
    C58      C        0.97470    0.13600    0.80450    1.000
    C59      C        0.29780    0.22250    0.74790    1.000
    C60      C        0.11670    0.14470    0.79790    1.000
    C61      C        0.14890    0.19920    0.75660    1.000
    O54      O        0.01270    0.05920    0.89050    1.000
    C62      C        0.92420    0.08610    0.85110    1.000
    C63      C        0.91980    0.22850    0.73190    1.000
    H17      H        0.20100    0.11600    0.82300    1.000
    H18      H        0.85000    0.25900    0.70900    1.000
    Y10      Y        0.36919    0.82542    0.52199    1.000
    O55      O        0.21170    0.92890    0.48170    1.000
    O56      O        0.61210    0.80680    0.54490    1.000
    O57      O        0.45060    0.95720    0.56190    1.000
    O58      O        0.68680    0.74580    0.62700    1.000
    O59      O        0.51830    0.08840    0.54350    1.000
    N19      N        0.12970    0.82810    0.56140    1.000
    N20      N        0.95390    0.76800    0.61170    1.000
    C64      C        0.03010    0.86770    0.52610    1.000
    C65      C        0.70540    0.78440    0.58290    1.000
    C66      C        0.88820    0.85880    0.53200    1.000
    C67      C        0.85520    0.80610    0.57470    1.000
    O60      O        0.99100    0.94280    0.44090    1.000
    C68      C        0.08100    0.91790    0.47940    1.000
    C69      C        0.08680    0.78090    0.60320    1.000
    C70      C        0.48970    0.01310    0.53060    1.000
    H19      H        0.82100    0.89400    0.51300    1.000
    H20      H        0.14600    0.74700    0.62700    1.000
    Y11      Y        0.86614    0.66520    0.35758    1.000
    O61      O        0.70670    0.56370    0.31640    1.000
    O62      O        0.10710    0.68390    0.38230    1.000
    O63      O        0.94300    0.53040    0.39440    1.000
    O64      O        0.06400    0.45960    0.26990    1.000
    O65      O        0.18740    0.76300    0.45640    1.000
    O66      O        0.97480    0.58490    0.29050    1.000
    O67      O        0.02680    0.40350    0.37400    1.000
    N21      N        0.62510    0.66880    0.39340    1.000
    N22      N        0.45230    0.73320    0.44140    1.000
    C71      C        0.52540    0.62810    0.35930    1.000
    C72      C        0.20270    0.71430    0.41650    1.000
    C73      C        0.38460    0.63750    0.36650    1.000
    C74      C        0.35330    0.69220    0.40680    1.000
    O68      O        0.48510    0.55010    0.27470    1.000
    C75      C        0.57410    0.57570    0.31200    1.000
    C76      C        0.58340    0.71930    0.43260    1.000
    C77      C        0.99420    0.47770    0.36240    1.000
    C78      C        0.01350    0.50990    0.30220    1.000
    H21      H        0.31600    0.61400    0.34500    1.000
    H22      H        0.65600    0.74200    0.45200    1.000
    Y12      Y        0.86551    0.67813    0.69299    1.000
    O69      O        0.70720    0.57710    0.65050    1.000
    O70      O        0.10640    0.69220    0.71700    1.000
    O71      O        0.18770    0.77050    0.79230    1.000
    N23      N        0.62310    0.67820    0.72810    1.000
    N24      N        0.44990    0.74140    0.77740    1.000
    C79      C        0.52530    0.63600    0.69550    1.000
    C80      C        0.20220    0.72250    0.75210    1.000
    C81      C        0.38330    0.64470    0.70210    1.000
    C82      C        0.35110    0.69920    0.74340    1.000
    O72      O        0.48730    0.55920    0.60950    1.000
    C83      C        0.57580    0.58610    0.64890    1.000
    C84      C        0.58020    0.72850    0.76810    1.000
    H23      H        0.29900    0.61600    0.67700    1.000
    H24      H        0.65000    0.75900    0.79100    1.000
