# CIF file generated by openbabel 3.1.0, see https://openbabel.org
data_I
_chemical_name_common 'image0'
_cell_length_a 11.7865
_cell_length_b 16.716
_cell_length_c 52.892
_cell_angle_alpha 90
_cell_angle_beta 90
_cell_angle_gamma 90
_space_group_name_H-M_alt 'P 1'
_space_group_name_Hall 'P 1'
loop_
    _symmetry_equiv_pos_as_xyz
    x,y,z
loop_
    _atom_site_label
    _atom_site_type_symbol
    _atom_site_fract_x
    _atom_site_fract_y
    _atom_site_fract_z
    _atom_site_occupancy
    C1       C        0.81230    0.43670    0.85722    1.000
    C2       C        0.77200    0.50390    0.87345    1.000
    C3       C        0.69670    0.55940    0.86376    1.000
    H1       H        0.66920    0.55330    0.84740    1.000
    C4       C        0.66220    0.62330    0.87801    1.000
    H2       H        0.60920    0.65920    0.87160    1.000
    C5       C        0.70690    0.63420    0.90208    1.000
    C6       C        0.78170    0.57960    0.91162    1.000
    H3       H        0.81100    0.58700    0.92780    1.000
    C7       C        0.81480    0.51350    0.89765    1.000
    H4       H        0.86480    0.47620    0.90440    1.000
    C8       C        0.67070    0.70430    0.91750    1.000
    C9       C        0.05970    0.20750    0.82965    1.000
    C10      C        0.13980    0.13850    0.83320    1.000
    C11      C        0.14540    0.09890    0.85579    1.000
    H5       H        0.09950    0.11470    0.86920    1.000
    C12      C        0.21910    0.03540    0.85875    1.000
    H6       H        0.22110    0.00860    0.87420    1.000
    C13      C        0.28960    0.01060    0.83957    1.000
    C14      C        0.28080    0.04880    0.81639    1.000
    H7       H        0.32590    0.03210    0.80300    1.000
    C15      C        0.20610    0.11110    0.81303    1.000
    H8       H        0.19960    0.13510    0.79720    1.000
    C16      C        0.37280    0.94140    0.84315    1.000
    C17      C        0.86940    0.31350    0.76371    1.000
    H9       H        0.92270    0.27330    0.76630    1.000
    C18      C        0.81570    0.31570    0.74012    1.000
    H10      H        0.83610    0.27960    0.72750    1.000
    C19      C        0.73360    0.37080    0.73570    1.000
    C20      C        0.71590    0.42430    0.75467    1.000
    H11      H        0.66400    0.46580    0.75260    1.000
    C21      C        0.77580    0.41650    0.77697    1.000
    H12      H        0.76040    0.45380    0.78960    1.000
    C22      C        0.66770    0.37390    0.71185    1.000
    C23      C        0.69980    0.32860    0.69103    1.000
    H13      H        0.76340    0.29590    0.69230    1.000
    C24      C        0.64100    0.33030    0.66847    1.000
    H14      H        0.66560    0.29950    0.65490    1.000
    C25      C        0.54560    0.37760    0.66608    1.000
    C26      C        0.51360    0.42370    0.68690    1.000
    H15      H        0.45060    0.45700    0.68570    1.000
    C27      C        0.57360    0.42070    0.70917    1.000
    H16      H        0.54930    0.45140    0.72280    1.000
    C28      C        0.50000    0.36020    0.61961    1.000
    C29      C        0.40650    0.34230    0.60447    1.000
    H17      H        0.33400    0.34540    0.61130    1.000
    C30      C        0.41920    0.32060    0.58000    1.000
    H18      H        0.35520    0.31020    0.57030    1.000
    C31      C        0.52710    0.31350    0.56897    1.000
    C32      C        0.61880    0.33200    0.58468    1.000
    H19      H        0.69160    0.32920    0.57800    1.000
    C33      C        0.60660    0.35400    0.60928    1.000
    H20      H        0.67030    0.36470    0.61910    1.000
    C34      C        0.46480    0.25300    0.50224    1.000
    H21      H        0.40070    0.24750    0.49210    1.000
    C35      C        0.44900    0.28160    0.52638    1.000
    H22      H        0.37740    0.29790    0.53170    1.000
    C36      C        0.54050    0.28610    0.54263    1.000
    C37      C        0.63940    0.27000    0.53193    1.000
    H23      H        0.70630    0.27860    0.54080    1.000
    C38      C        0.64360    0.24030    0.50736    1.000
    H24      H        0.71450    0.22420    0.50160    1.000
    C39      C        0.13850    0.20660    0.92366    1.000
    C40      C        0.21510    0.13530    0.92735    1.000
    C41      C        0.19660    0.08530    0.94748    1.000
    H25      H        0.13670    0.09540    0.95850    1.000
    C42      C        0.26610    0.01980    0.95158    1.000
    H26      H        0.25460    0.98710    0.96560    1.000
    C43      C        0.35270    0.00320    0.93473    1.000
    C44      C        0.37050    0.05420    0.91509    1.000
    H27      H        0.42970    0.04430    0.90390    1.000
    C45      C        0.30270    0.11960    0.91151    1.000
    H28      H        0.31700    0.15380    0.89800    1.000
    C46      C        0.42610    0.93270    0.93931    1.000
    Cd1      Cd       0.91535    0.33579    0.82221    1.000
    Cd2      Cd       0.02490    0.32415    0.88513    1.000
    Cd3      Cd       0.56716    0.80678    0.95058    1.000
    N1       N        0.85170    0.36220    0.78221    1.000
    N2       N        0.56310    0.23260    0.49220    1.000
    N3       N        0.47660    0.38360    0.64448    1.000
    O1       O        0.78050    0.43370    0.83476    1.000
    O2       O        0.87540    0.38260    0.86608    1.000
    O3       O        0.62210    0.76141    0.90693    1.000
    O4       O        0.69060    0.70462    0.94070    1.000
    O5       O        0.01740    0.24122    0.84882    1.000
    O6       O        0.03520    0.23020    0.80783    1.000
    O7       O        0.36620    0.90806    0.86437    1.000
    O8       O        0.44040    0.92676    0.82610    1.000
    O9       O        0.48480    0.90376    0.92158    1.000
    O10      O        0.43020    0.90330    0.96091    1.000
    O11      O        0.07790    0.22400    0.94215    1.000
    O12      O        0.14240    0.24051    0.90306    1.000
    C47      C        0.68770    0.06330    0.35722    1.000
    C48      C        0.72800    0.99610    0.37345    1.000
    C49      C        0.80330    0.94060    0.36376    1.000
    H29      H        0.83080    0.94670    0.34740    1.000
    C50      C        0.83780    0.87670    0.37801    1.000
    H30      H        0.89080    0.84080    0.37160    1.000
    C51      C        0.79310    0.86580    0.40208    1.000
    C52      C        0.71830    0.92040    0.41162    1.000
    H31      H        0.68900    0.91300    0.42780    1.000
    C53      C        0.68520    0.98650    0.39765    1.000
    H32      H        0.63520    0.02380    0.40440    1.000
    C54      C        0.82930    0.79570    0.41750    1.000
    C55      C        0.44030    0.29250    0.32965    1.000
    C56      C        0.36020    0.36150    0.33320    1.000
    C57      C        0.35460    0.40110    0.35579    1.000
    H33      H        0.40050    0.38530    0.36920    1.000
    C58      C        0.28090    0.46460    0.35875    1.000
    H34      H        0.27890    0.49140    0.37420    1.000
    C59      C        0.21040    0.48940    0.33957    1.000
    C60      C        0.21920    0.45120    0.31639    1.000
    H35      H        0.17410    0.46790    0.30300    1.000
    C61      C        0.29390    0.38890    0.31303    1.000
    H36      H        0.30040    0.36490    0.29720    1.000
    C62      C        0.12720    0.55860    0.34315    1.000
    C63      C        0.63060    0.18650    0.26371    1.000
    H37      H        0.57730    0.22670    0.26630    1.000
    C64      C        0.68430    0.18430    0.24012    1.000
    H38      H        0.66390    0.22040    0.22750    1.000
    C65      C        0.76640    0.12920    0.23570    1.000
    C66      C        0.78410    0.07570    0.25467    1.000
    H39      H        0.83600    0.03420    0.25260    1.000
    C67      C        0.72420    0.08350    0.27697    1.000
    H40      H        0.73960    0.04620    0.28960    1.000
    C68      C        0.83230    0.12610    0.21185    1.000
    C69      C        0.80020    0.17140    0.19103    1.000
    H41      H        0.73660    0.20410    0.19230    1.000
    C70      C        0.85900    0.16970    0.16847    1.000
    H42      H        0.83440    0.20050    0.15490    1.000
    C71      C        0.95440    0.12240    0.16608    1.000
    C72      C        0.98640    0.07630    0.18690    1.000
    H43      H        0.04940    0.04300    0.18570    1.000
    C73      C        0.92640    0.07930    0.20917    1.000
    H44      H        0.95070    0.04860    0.22280    1.000
    C74      C        0.00000    0.13980    0.11961    1.000
    C75      C        0.09350    0.15770    0.10447    1.000
    H45      H        0.16600    0.15460    0.11130    1.000
    C76      C        0.08080    0.17940    0.08000    1.000
    H46      H        0.14480    0.18980    0.07030    1.000
    C77      C        0.97290    0.18650    0.06897    1.000
    C78      C        0.88120    0.16800    0.08468    1.000
    H47      H        0.80840    0.17080    0.07800    1.000
    C79      C        0.89340    0.14600    0.10928    1.000
    H48      H        0.82970    0.13530    0.11910    1.000
    C80      C        0.03520    0.24700    0.00224    1.000
    H49      H        0.09930    0.25250    0.99210    1.000
    C81      C        0.05100    0.21840    0.02638    1.000
    H50      H        0.12260    0.20210    0.03170    1.000
    C82      C        0.95950    0.21390    0.04263    1.000
    C83      C        0.86060    0.23000    0.03193    1.000
    H51      H        0.79370    0.22140    0.04080    1.000
    C84      C        0.85640    0.25970    0.00736    1.000
    H52      H        0.78550    0.27580    0.00160    1.000
    C85      C        0.36150    0.29340    0.42366    1.000
    C86      C        0.28490    0.36470    0.42735    1.000
    C87      C        0.30340    0.41470    0.44748    1.000
    H53      H        0.36330    0.40460    0.45850    1.000
    C88      C        0.23390    0.48020    0.45158    1.000
    H54      H        0.24540    0.51290    0.46560    1.000
    C89      C        0.14730    0.49680    0.43473    1.000
    C90      C        0.12950    0.44580    0.41509    1.000
    H55      H        0.07030    0.45570    0.40390    1.000
    C91      C        0.19730    0.38040    0.41151    1.000
    H56      H        0.18300    0.34620    0.39800    1.000
    C92      C        0.07390    0.56730    0.43931    1.000
    Cd4      Cd       0.58465    0.16421    0.32221    1.000
    Cd5      Cd       0.47510    0.17585    0.38513    1.000
    Cd6      Cd       0.93284    0.69322    0.45058    1.000
    N4       N        0.64830    0.13780    0.28221    1.000
    N5       N        0.93690    0.26740    0.99220    1.000
    N6       N        0.02340    0.11640    0.14448    1.000
    O13      O        0.71950    0.06630    0.33476    1.000
    O14      O        0.62460    0.11740    0.36608    1.000
    O15      O        0.87790    0.73859    0.40693    1.000
    O16      O        0.80940    0.79538    0.44070    1.000
    O17      O        0.48260    0.25878    0.34882    1.000
    O18      O        0.46480    0.26980    0.30783    1.000
    O19      O        0.13380    0.59194    0.36437    1.000
    O20      O        0.05960    0.57324    0.32610    1.000
    O21      O        0.01520    0.59624    0.42158    1.000
    O22      O        0.06980    0.59670    0.46091    1.000
    O23      O        0.42210    0.27600    0.44215    1.000
    O24      O        0.35760    0.25949    0.40306    1.000
    C93      C        0.81230    0.56330    0.35722    1.000
    C94      C        0.77200    0.49610    0.37345    1.000
    C95      C        0.69670    0.44060    0.36376    1.000
    H57      H        0.66920    0.44670    0.34740    1.000
    C96      C        0.66220    0.37670    0.37801    1.000
    H58      H        0.60920    0.34080    0.37160    1.000
    C97      C        0.70690    0.36580    0.40208    1.000
    C98      C        0.78170    0.42040    0.41162    1.000
    H59      H        0.81100    0.41300    0.42780    1.000
    C99      C        0.81480    0.48650    0.39765    1.000
    H60      H        0.86480    0.52380    0.40440    1.000
    C100     C        0.67070    0.29570    0.41750    1.000
    C101     C        0.05970    0.79250    0.32965    1.000
    C102     C        0.13980    0.86150    0.33320    1.000
    C103     C        0.14540    0.90110    0.35579    1.000
    H61      H        0.09950    0.88530    0.36920    1.000
    C104     C        0.21910    0.96460    0.35875    1.000
    H62      H        0.22110    0.99140    0.37420    1.000
    C105     C        0.28960    0.98940    0.33957    1.000
    C106     C        0.28080    0.95120    0.31639    1.000
    H63      H        0.32590    0.96790    0.30300    1.000
    C107     C        0.20610    0.88890    0.31303    1.000
    H64      H        0.19960    0.86490    0.29720    1.000
    C108     C        0.37280    0.05860    0.34315    1.000
    C109     C        0.86940    0.68650    0.26371    1.000
    H65      H        0.92270    0.72670    0.26630    1.000
    C110     C        0.81570    0.68430    0.24012    1.000
    H66      H        0.83610    0.72040    0.22750    1.000
    C111     C        0.73360    0.62920    0.23570    1.000
    C112     C        0.71590    0.57570    0.25467    1.000
    H67      H        0.66400    0.53420    0.25260    1.000
    C113     C        0.77580    0.58350    0.27697    1.000
    H68      H        0.76040    0.54620    0.28960    1.000
    C114     C        0.66770    0.62610    0.21185    1.000
    C115     C        0.69980    0.67140    0.19103    1.000
    H69      H        0.76340    0.70410    0.19230    1.000
    C116     C        0.64100    0.66970    0.16847    1.000
    H70      H        0.66560    0.70050    0.15490    1.000
    C117     C        0.54560    0.62240    0.16608    1.000
    C118     C        0.51360    0.57630    0.18690    1.000
    H71      H        0.45060    0.54300    0.18570    1.000
    C119     C        0.57360    0.57930    0.20917    1.000
    H72      H        0.54930    0.54860    0.22280    1.000
    C120     C        0.50000    0.63980    0.11961    1.000
    C121     C        0.40650    0.65770    0.10447    1.000
    H73      H        0.33400    0.65460    0.11130    1.000
    C122     C        0.41920    0.67940    0.08000    1.000
    H74      H        0.35520    0.68980    0.07030    1.000
    C123     C        0.52710    0.68650    0.06897    1.000
    C124     C        0.61880    0.66800    0.08468    1.000
    H75      H        0.69160    0.67080    0.07800    1.000
    C125     C        0.60660    0.64600    0.10928    1.000
    H76      H        0.67030    0.63530    0.11910    1.000
    C126     C        0.46480    0.74700    0.00224    1.000
    H77      H        0.40070    0.75250    0.99210    1.000
    C127     C        0.44900    0.71840    0.02638    1.000
    H78      H        0.37740    0.70210    0.03170    1.000
    C128     C        0.54050    0.71390    0.04263    1.000
    C129     C        0.63940    0.73000    0.03193    1.000
    H79      H        0.70630    0.72140    0.04080    1.000
    C130     C        0.64360    0.75970    0.00736    1.000
    H80      H        0.71450    0.77580    0.00160    1.000
    C131     C        0.13850    0.79340    0.42366    1.000
    C132     C        0.21510    0.86470    0.42735    1.000
    C133     C        0.19660    0.91470    0.44748    1.000
    H81      H        0.13670    0.90460    0.45850    1.000
    C134     C        0.26610    0.98020    0.45158    1.000
    H82      H        0.25460    0.01290    0.46560    1.000
    C135     C        0.35270    0.99680    0.43473    1.000
    C136     C        0.37050    0.94580    0.41509    1.000
    H83      H        0.42970    0.95570    0.40390    1.000
    C137     C        0.30270    0.88040    0.41151    1.000
    H84      H        0.31700    0.84620    0.39800    1.000
    C138     C        0.42610    0.06730    0.43931    1.000
    Cd7      Cd       0.91535    0.66421    0.32221    1.000
    Cd8      Cd       0.02490    0.67585    0.38513    1.000
    Cd9      Cd       0.56716    0.19322    0.45058    1.000
    N7       N        0.85170    0.63780    0.28221    1.000
    N8       N        0.56310    0.76740    0.99220    1.000
    N9       N        0.47660    0.61640    0.14448    1.000
    O25      O        0.78050    0.56630    0.33476    1.000
    O26      O        0.87540    0.61740    0.36608    1.000
    O27      O        0.62210    0.23859    0.40693    1.000
    O28      O        0.69060    0.29538    0.44070    1.000
    O29      O        0.01740    0.75878    0.34882    1.000
    O30      O        0.03520    0.76980    0.30783    1.000
    O31      O        0.36620    0.09194    0.36437    1.000
    O32      O        0.44040    0.07324    0.32610    1.000
    O33      O        0.48480    0.09624    0.42158    1.000
    O34      O        0.43020    0.09670    0.46091    1.000
    O35      O        0.07790    0.77600    0.44215    1.000
    O36      O        0.14240    0.75949    0.40306    1.000
    C139     C        0.68770    0.93670    0.85722    1.000
    C140     C        0.72800    0.00390    0.87345    1.000
    C141     C        0.80330    0.05940    0.86376    1.000
    H85      H        0.83080    0.05330    0.84740    1.000
    C142     C        0.83780    0.12330    0.87801    1.000
    H86      H        0.89080    0.15920    0.87160    1.000
    C143     C        0.79310    0.13420    0.90208    1.000
    C144     C        0.71830    0.07960    0.91162    1.000
    H87      H        0.68900    0.08700    0.92780    1.000
    C145     C        0.68520    0.01350    0.89765    1.000
    H88      H        0.63520    0.97620    0.90440    1.000
    C146     C        0.82930    0.20430    0.91750    1.000
    C147     C        0.44030    0.70750    0.82965    1.000
    C148     C        0.36020    0.63850    0.83320    1.000
    C149     C        0.35460    0.59890    0.85579    1.000
    H89      H        0.40050    0.61470    0.86920    1.000
    C150     C        0.28090    0.53540    0.85875    1.000
    H90      H        0.27890    0.50860    0.87420    1.000
    C151     C        0.21040    0.51060    0.83957    1.000
    C152     C        0.21920    0.54880    0.81639    1.000
    H91      H        0.17410    0.53210    0.80300    1.000
    C153     C        0.29390    0.61110    0.81303    1.000
    H92      H        0.30040    0.63510    0.79720    1.000
    C154     C        0.12720    0.44140    0.84315    1.000
    C155     C        0.63060    0.81350    0.76371    1.000
    H93      H        0.57730    0.77330    0.76630    1.000
    C156     C        0.68430    0.81570    0.74012    1.000
    H94      H        0.66390    0.77960    0.72750    1.000
    C157     C        0.76640    0.87080    0.73570    1.000
    C158     C        0.78410    0.92430    0.75467    1.000
    H95      H        0.83600    0.96580    0.75260    1.000
    C159     C        0.72420    0.91650    0.77697    1.000
    H96      H        0.73960    0.95380    0.78960    1.000
    C160     C        0.83230    0.87390    0.71185    1.000
    C161     C        0.80020    0.82860    0.69103    1.000
    H97      H        0.73660    0.79590    0.69230    1.000
    C162     C        0.85900    0.83030    0.66847    1.000
    H98      H        0.83440    0.79950    0.65490    1.000
    C163     C        0.95440    0.87760    0.66608    1.000
    C164     C        0.98640    0.92370    0.68690    1.000
    H99      H        0.04940    0.95700    0.68570    1.000
    C165     C        0.92640    0.92070    0.70917    1.000
    H100     H        0.95070    0.95140    0.72280    1.000
    C166     C        0.00000    0.86020    0.61961    1.000
    C167     C        0.09350    0.84230    0.60447    1.000
    H101     H        0.16600    0.84540    0.61130    1.000
    C168     C        0.08080    0.82060    0.58000    1.000
    H102     H        0.14480    0.81020    0.57030    1.000
    C169     C        0.97290    0.81350    0.56897    1.000
    C170     C        0.88120    0.83200    0.58468    1.000
    H103     H        0.80840    0.82920    0.57800    1.000
    C171     C        0.89340    0.85400    0.60928    1.000
    H104     H        0.82970    0.86470    0.61910    1.000
    C172     C        0.03520    0.75300    0.50224    1.000
    H105     H        0.09930    0.74750    0.49210    1.000
    C173     C        0.05100    0.78160    0.52638    1.000
    H106     H        0.12260    0.79790    0.53170    1.000
    C174     C        0.95950    0.78610    0.54263    1.000
    C175     C        0.86060    0.77000    0.53193    1.000
    H107     H        0.79370    0.77860    0.54080    1.000
    C176     C        0.85640    0.74030    0.50736    1.000
    H108     H        0.78550    0.72420    0.50160    1.000
    C177     C        0.36150    0.70660    0.92366    1.000
    C178     C        0.28490    0.63530    0.92735    1.000
    C179     C        0.30340    0.58530    0.94748    1.000
    H109     H        0.36330    0.59540    0.95850    1.000
    C180     C        0.23390    0.51980    0.95158    1.000
    H110     H        0.24540    0.48710    0.96560    1.000
    C181     C        0.14730    0.50320    0.93473    1.000
    C182     C        0.12950    0.55420    0.91509    1.000
    H111     H        0.07030    0.54430    0.90390    1.000
    C183     C        0.19730    0.61960    0.91151    1.000
    H112     H        0.18300    0.65380    0.89800    1.000
    C184     C        0.07390    0.43270    0.93931    1.000
    Cd10     Cd       0.58465    0.83579    0.82221    1.000
    Cd11     Cd       0.47510    0.82415    0.88513    1.000
    Cd12     Cd       0.93284    0.30678    0.95058    1.000
    N10      N        0.64830    0.86220    0.78221    1.000
    N11      N        0.93690    0.73260    0.49220    1.000
    N12      N        0.02340    0.88360    0.64448    1.000
    O37      O        0.71950    0.93370    0.83476    1.000
    O38      O        0.62460    0.88260    0.86608    1.000
    O39      O        0.87790    0.26141    0.90693    1.000
    O40      O        0.80940    0.20462    0.94070    1.000
    O41      O        0.48260    0.74122    0.84882    1.000
    O42      O        0.46480    0.73020    0.80783    1.000
    O43      O        0.13380    0.40806    0.86437    1.000
    O44      O        0.05960    0.42676    0.82610    1.000
    O45      O        0.01520    0.40376    0.92158    1.000
    O46      O        0.06980    0.40330    0.96091    1.000
    O47      O        0.42210    0.72400    0.94215    1.000
    O48      O        0.35760    0.74051    0.90306    1.000
    C185     C        0.18770    0.43670    0.64278    1.000
    C186     C        0.22800    0.50390    0.62655    1.000
    C187     C        0.30330    0.55940    0.63624    1.000
    H113     H        0.33080    0.55330    0.65260    1.000
    C188     C        0.33780    0.62330    0.62199    1.000
    H114     H        0.39080    0.65920    0.62840    1.000
    C189     C        0.29310    0.63420    0.59792    1.000
    C190     C        0.21830    0.57960    0.58838    1.000
    H115     H        0.18900    0.58700    0.57220    1.000
    C191     C        0.18520    0.51350    0.60235    1.000
    H116     H        0.13520    0.47620    0.59560    1.000
    C192     C        0.32930    0.70430    0.58250    1.000
    C193     C        0.94030    0.20750    0.67035    1.000
    C194     C        0.86020    0.13850    0.66680    1.000
    C195     C        0.85460    0.09890    0.64421    1.000
    H117     H        0.90050    0.11470    0.63080    1.000
    C196     C        0.78090    0.03540    0.64125    1.000
    H118     H        0.77890    0.00860    0.62580    1.000
    C197     C        0.71040    0.01060    0.66043    1.000
    C198     C        0.71920    0.04880    0.68361    1.000
    H119     H        0.67410    0.03210    0.69700    1.000
    C199     C        0.79390    0.11110    0.68697    1.000
    H120     H        0.80040    0.13510    0.70280    1.000
    C200     C        0.62720    0.94140    0.65685    1.000
    C201     C        0.13060    0.31350    0.73629    1.000
    H121     H        0.07730    0.27330    0.73370    1.000
    C202     C        0.18430    0.31570    0.75988    1.000
    H122     H        0.16390    0.27960    0.77250    1.000
    C203     C        0.26640    0.37080    0.76430    1.000
    C204     C        0.28410    0.42430    0.74533    1.000
    H123     H        0.33600    0.46580    0.74740    1.000
    C205     C        0.22420    0.41650    0.72303    1.000
    H124     H        0.23960    0.45380    0.71040    1.000
    C206     C        0.33230    0.37390    0.78815    1.000
    C207     C        0.30020    0.32860    0.80897    1.000
    H125     H        0.23660    0.29590    0.80770    1.000
    C208     C        0.35900    0.33030    0.83153    1.000
    H126     H        0.33440    0.29950    0.84510    1.000
    C209     C        0.45440    0.37760    0.83392    1.000
    C210     C        0.48640    0.42370    0.81310    1.000
    H127     H        0.54940    0.45700    0.81430    1.000
    C211     C        0.42640    0.42070    0.79083    1.000
    H128     H        0.45070    0.45140    0.77720    1.000
    C212     C        0.50000    0.36020    0.88039    1.000
    C213     C        0.59350    0.34230    0.89553    1.000
    H129     H        0.66600    0.34540    0.88870    1.000
    C214     C        0.58080    0.32060    0.92000    1.000
    H130     H        0.64480    0.31020    0.92970    1.000
    C215     C        0.47290    0.31350    0.93103    1.000
    C216     C        0.38120    0.33200    0.91532    1.000
    H131     H        0.30840    0.32920    0.92200    1.000
    C217     C        0.39340    0.35400    0.89072    1.000
    H132     H        0.32970    0.36470    0.88090    1.000
    C218     C        0.53520    0.25300    0.99776    1.000
    H133     H        0.59930    0.24750    0.00790    1.000
    C219     C        0.55100    0.28160    0.97362    1.000
    H134     H        0.62260    0.29790    0.96830    1.000
    C220     C        0.45950    0.28610    0.95737    1.000
    C221     C        0.36060    0.27000    0.96807    1.000
    H135     H        0.29370    0.27860    0.95920    1.000
    C222     C        0.35640    0.24030    0.99264    1.000
    H136     H        0.28550    0.22420    0.99840    1.000
    C223     C        0.86150    0.20660    0.57634    1.000
    C224     C        0.78490    0.13530    0.57265    1.000
    C225     C        0.80340    0.08530    0.55252    1.000
    H137     H        0.86330    0.09540    0.54150    1.000
    C226     C        0.73390    0.01980    0.54842    1.000
    H138     H        0.74540    0.98710    0.53440    1.000
    C227     C        0.64730    0.00320    0.56527    1.000
    C228     C        0.62950    0.05420    0.58491    1.000
    H139     H        0.57030    0.04430    0.59610    1.000
    C229     C        0.69730    0.11960    0.58849    1.000
    H140     H        0.68300    0.15380    0.60200    1.000
    C230     C        0.57390    0.93270    0.56069    1.000
    Cd13     Cd       0.08465    0.33579    0.67779    1.000
    Cd14     Cd       0.97510    0.32415    0.61487    1.000
    Cd15     Cd       0.43284    0.80678    0.54942    1.000
    N13      N        0.14830    0.36220    0.71779    1.000
    N14      N        0.43690    0.23260    0.00780    1.000
    N15      N        0.52340    0.38360    0.85552    1.000
    O49      O        0.21950    0.43370    0.66524    1.000
    O50      O        0.12460    0.38260    0.63392    1.000
    O51      O        0.37790    0.76141    0.59307    1.000
    O52      O        0.30940    0.70462    0.55930    1.000
    O53      O        0.98260    0.24122    0.65118    1.000
    O54      O        0.96480    0.23020    0.69217    1.000
    O55      O        0.63380    0.90806    0.63563    1.000
    O56      O        0.55960    0.92676    0.67390    1.000
    O57      O        0.51520    0.90376    0.57842    1.000
    O58      O        0.56980    0.90330    0.53909    1.000
    O59      O        0.92210    0.22400    0.55785    1.000
    O60      O        0.85760    0.24051    0.59694    1.000
    C231     C        0.31230    0.06330    0.14278    1.000
    C232     C        0.27200    0.99610    0.12655    1.000
    C233     C        0.19670    0.94060    0.13624    1.000
    H141     H        0.16920    0.94670    0.15260    1.000
    C234     C        0.16220    0.87670    0.12199    1.000
    H142     H        0.10920    0.84080    0.12840    1.000
    C235     C        0.20690    0.86580    0.09792    1.000
    C236     C        0.28170    0.92040    0.08838    1.000
    H143     H        0.31100    0.91300    0.07220    1.000
    C237     C        0.31480    0.98650    0.10235    1.000
    H144     H        0.36480    0.02380    0.09560    1.000
    C238     C        0.17070    0.79570    0.08250    1.000
    C239     C        0.55970    0.29250    0.17035    1.000
    C240     C        0.63980    0.36150    0.16680    1.000
    C241     C        0.64540    0.40110    0.14421    1.000
    H145     H        0.59950    0.38530    0.13080    1.000
    C242     C        0.71910    0.46460    0.14125    1.000
    H146     H        0.72110    0.49140    0.12580    1.000
    C243     C        0.78960    0.48940    0.16043    1.000
    C244     C        0.78080    0.45120    0.18361    1.000
    H147     H        0.82590    0.46790    0.19700    1.000
    C245     C        0.70610    0.38890    0.18697    1.000
    H148     H        0.69960    0.36490    0.20280    1.000
    C246     C        0.87280    0.55860    0.15685    1.000
    C247     C        0.36940    0.18650    0.23629    1.000
    H149     H        0.42270    0.22670    0.23370    1.000
    C248     C        0.31570    0.18430    0.25988    1.000
    H150     H        0.33610    0.22040    0.27250    1.000
    C249     C        0.23360    0.12920    0.26430    1.000
    C250     C        0.21590    0.07570    0.24533    1.000
    H151     H        0.16400    0.03420    0.24740    1.000
    C251     C        0.27580    0.08350    0.22303    1.000
    H152     H        0.26040    0.04620    0.21040    1.000
    C252     C        0.16770    0.12610    0.28815    1.000
    C253     C        0.19980    0.17140    0.30897    1.000
    H153     H        0.26340    0.20410    0.30770    1.000
    C254     C        0.14100    0.16970    0.33153    1.000
    H154     H        0.16560    0.20050    0.34510    1.000
    C255     C        0.04560    0.12240    0.33392    1.000
    C256     C        0.01360    0.07630    0.31310    1.000
    H155     H        0.95060    0.04300    0.31430    1.000
    C257     C        0.07360    0.07930    0.29083    1.000
    H156     H        0.04930    0.04860    0.27720    1.000
    C258     C        0.00000    0.13980    0.38039    1.000
    C259     C        0.90650    0.15770    0.39553    1.000
    H157     H        0.83400    0.15460    0.38870    1.000
    C260     C        0.91920    0.17940    0.42000    1.000
    H158     H        0.85520    0.18980    0.42970    1.000
    C261     C        0.02710    0.18650    0.43103    1.000
    C262     C        0.11880    0.16800    0.41532    1.000
    H159     H        0.19160    0.17080    0.42200    1.000
    C263     C        0.10660    0.14600    0.39072    1.000
    H160     H        0.17030    0.13530    0.38090    1.000
    C264     C        0.96480    0.24700    0.49776    1.000
    H161     H        0.90070    0.25250    0.50790    1.000
    C265     C        0.94900    0.21840    0.47362    1.000
    H162     H        0.87740    0.20210    0.46830    1.000
    C266     C        0.04050    0.21390    0.45737    1.000
    C267     C        0.13940    0.23000    0.46807    1.000
    H163     H        0.20630    0.22140    0.45920    1.000
    C268     C        0.14360    0.25970    0.49264    1.000
    H164     H        0.21450    0.27580    0.49840    1.000
    C269     C        0.63850    0.29340    0.07634    1.000
    C270     C        0.71510    0.36470    0.07265    1.000
    C271     C        0.69660    0.41470    0.05252    1.000
    H165     H        0.63670    0.40460    0.04150    1.000
    C272     C        0.76610    0.48020    0.04842    1.000
    H166     H        0.75460    0.51290    0.03440    1.000
    C273     C        0.85270    0.49680    0.06527    1.000
    C274     C        0.87050    0.44580    0.08491    1.000
    H167     H        0.92970    0.45570    0.09610    1.000
    C275     C        0.80270    0.38040    0.08849    1.000
    H168     H        0.81700    0.34620    0.10200    1.000
    C276     C        0.92610    0.56730    0.06069    1.000
    Cd16     Cd       0.41535    0.16421    0.17779    1.000
    Cd17     Cd       0.52490    0.17585    0.11487    1.000
    Cd18     Cd       0.06716    0.69322    0.04942    1.000
    N16      N        0.35170    0.13780    0.21779    1.000
    N17      N        0.06310    0.26740    0.50780    1.000
    N18      N        0.97660    0.11640    0.35552    1.000
    O61      O        0.28050    0.06630    0.16524    1.000
    O62      O        0.37540    0.11740    0.13392    1.000
    O63      O        0.12210    0.73859    0.09307    1.000
    O64      O        0.19060    0.79538    0.05930    1.000
    O65      O        0.51740    0.25878    0.15118    1.000
    O66      O        0.53520    0.26980    0.19217    1.000
    O67      O        0.86620    0.59194    0.13563    1.000
    O68      O        0.94040    0.57324    0.17390    1.000
    O69      O        0.98480    0.59624    0.07842    1.000
    O70      O        0.93020    0.59670    0.03909    1.000
    O71      O        0.57790    0.27600    0.05785    1.000
    O72      O        0.64240    0.25949    0.09694    1.000
    C277     C        0.18770    0.56330    0.14278    1.000
    C278     C        0.22800    0.49610    0.12655    1.000
    C279     C        0.30330    0.44060    0.13624    1.000
    H169     H        0.33080    0.44670    0.15260    1.000
    C280     C        0.33780    0.37670    0.12199    1.000
    H170     H        0.39080    0.34080    0.12840    1.000
    C281     C        0.29310    0.36580    0.09792    1.000
    C282     C        0.21830    0.42040    0.08838    1.000
    H171     H        0.18900    0.41300    0.07220    1.000
    C283     C        0.18520    0.48650    0.10235    1.000
    H172     H        0.13520    0.52380    0.09560    1.000
    C284     C        0.32930    0.29570    0.08250    1.000
    C285     C        0.94030    0.79250    0.17035    1.000
    C286     C        0.86020    0.86150    0.16680    1.000
    C287     C        0.85460    0.90110    0.14421    1.000
    H173     H        0.90050    0.88530    0.13080    1.000
    C288     C        0.78090    0.96460    0.14125    1.000
    H174     H        0.77890    0.99140    0.12580    1.000
    C289     C        0.71040    0.98940    0.16043    1.000
    C290     C        0.71920    0.95120    0.18361    1.000
    H175     H        0.67410    0.96790    0.19700    1.000
    C291     C        0.79390    0.88890    0.18697    1.000
    H176     H        0.80040    0.86490    0.20280    1.000
    C292     C        0.62720    0.05860    0.15685    1.000
    C293     C        0.13060    0.68650    0.23629    1.000
    H177     H        0.07730    0.72670    0.23370    1.000
    C294     C        0.18430    0.68430    0.25988    1.000
    H178     H        0.16390    0.72040    0.27250    1.000
    C295     C        0.26640    0.62920    0.26430    1.000
    C296     C        0.28410    0.57570    0.24533    1.000
    H179     H        0.33600    0.53420    0.24740    1.000
    C297     C        0.22420    0.58350    0.22303    1.000
    H180     H        0.23960    0.54620    0.21040    1.000
    C298     C        0.33230    0.62610    0.28815    1.000
    C299     C        0.30020    0.67140    0.30897    1.000
    H181     H        0.23660    0.70410    0.30770    1.000
    C300     C        0.35900    0.66970    0.33153    1.000
    H182     H        0.33440    0.70050    0.34510    1.000
    C301     C        0.45440    0.62240    0.33392    1.000
    C302     C        0.48640    0.57630    0.31310    1.000
    H183     H        0.54940    0.54300    0.31430    1.000
    C303     C        0.42640    0.57930    0.29083    1.000
    H184     H        0.45070    0.54860    0.27720    1.000
    C304     C        0.50000    0.63980    0.38039    1.000
    C305     C        0.59350    0.65770    0.39553    1.000
    H185     H        0.66600    0.65460    0.38870    1.000
    C306     C        0.58080    0.67940    0.42000    1.000
    H186     H        0.64480    0.68980    0.42970    1.000
    C307     C        0.47290    0.68650    0.43103    1.000
    C308     C        0.38120    0.66800    0.41532    1.000
    H187     H        0.30840    0.67080    0.42200    1.000
    C309     C        0.39340    0.64600    0.39072    1.000
    H188     H        0.32970    0.63530    0.38090    1.000
    C310     C        0.53520    0.74700    0.49776    1.000
    H189     H        0.59930    0.75250    0.50790    1.000
    C311     C        0.55100    0.71840    0.47362    1.000
    H190     H        0.62260    0.70210    0.46830    1.000
    C312     C        0.45950    0.71390    0.45737    1.000
    C313     C        0.36060    0.73000    0.46807    1.000
    H191     H        0.29370    0.72140    0.45920    1.000
    C314     C        0.35640    0.75970    0.49264    1.000
    H192     H        0.28550    0.77580    0.49840    1.000
    C315     C        0.86150    0.79340    0.07634    1.000
    C316     C        0.78490    0.86470    0.07265    1.000
    C317     C        0.80340    0.91470    0.05252    1.000
    H193     H        0.86330    0.90460    0.04150    1.000
    C318     C        0.73390    0.98020    0.04842    1.000
    H194     H        0.74540    0.01290    0.03440    1.000
    C319     C        0.64730    0.99680    0.06527    1.000
    C320     C        0.62950    0.94580    0.08491    1.000
    H195     H        0.57030    0.95570    0.09610    1.000
    C321     C        0.69730    0.88040    0.08849    1.000
    H196     H        0.68300    0.84620    0.10200    1.000
    C322     C        0.57390    0.06730    0.06069    1.000
    Cd19     Cd       0.08465    0.66421    0.17779    1.000
    Cd20     Cd       0.97510    0.67585    0.11487    1.000
    Cd21     Cd       0.43284    0.19322    0.04942    1.000
    N19      N        0.14830    0.63780    0.21779    1.000
    N20      N        0.43690    0.76740    0.50780    1.000
    N21      N        0.52340    0.61640    0.35552    1.000
    O73      O        0.21950    0.56630    0.16524    1.000
    O74      O        0.12460    0.61740    0.13392    1.000
    O75      O        0.37790    0.23859    0.09307    1.000
    O76      O        0.30940    0.29538    0.05930    1.000
    O77      O        0.98260    0.75878    0.15118    1.000
    O78      O        0.96480    0.76980    0.19217    1.000
    O79      O        0.63380    0.09194    0.13563    1.000
    O80      O        0.55960    0.07324    0.17390    1.000
    O81      O        0.51520    0.09624    0.07842    1.000
    O82      O        0.56980    0.09670    0.03909    1.000
    O83      O        0.92210    0.77600    0.05785    1.000
    O84      O        0.85760    0.75949    0.09694    1.000
    C323     C        0.31230    0.93670    0.64278    1.000
    C324     C        0.27200    0.00390    0.62655    1.000
    C325     C        0.19670    0.05940    0.63624    1.000
    H197     H        0.16920    0.05330    0.65260    1.000
    C326     C        0.16220    0.12330    0.62199    1.000
    H198     H        0.10920    0.15920    0.62840    1.000
    C327     C        0.20690    0.13420    0.59792    1.000
    C328     C        0.28170    0.07960    0.58838    1.000
    H199     H        0.31100    0.08700    0.57220    1.000
    C329     C        0.31480    0.01350    0.60235    1.000
    H200     H        0.36480    0.97620    0.59560    1.000
    C330     C        0.17070    0.20430    0.58250    1.000
    C331     C        0.55970    0.70750    0.67035    1.000
    C332     C        0.63980    0.63850    0.66680    1.000
    C333     C        0.64540    0.59890    0.64421    1.000
    H201     H        0.59950    0.61470    0.63080    1.000
    C334     C        0.71910    0.53540    0.64125    1.000
    H202     H        0.72110    0.50860    0.62580    1.000
    C335     C        0.78960    0.51060    0.66043    1.000
    C336     C        0.78080    0.54880    0.68361    1.000
    H203     H        0.82590    0.53210    0.69700    1.000
    C337     C        0.70610    0.61110    0.68697    1.000
    H204     H        0.69960    0.63510    0.70280    1.000
    C338     C        0.87280    0.44140    0.65685    1.000
    C339     C        0.36940    0.81350    0.73629    1.000
    H205     H        0.42270    0.77330    0.73370    1.000
    C340     C        0.31570    0.81570    0.75988    1.000
    H206     H        0.33610    0.77960    0.77250    1.000
    C341     C        0.23360    0.87080    0.76430    1.000
    C342     C        0.21590    0.92430    0.74533    1.000
    H207     H        0.16400    0.96580    0.74740    1.000
    C343     C        0.27580    0.91650    0.72303    1.000
    H208     H        0.26040    0.95380    0.71040    1.000
    C344     C        0.16770    0.87390    0.78815    1.000
    C345     C        0.19980    0.82860    0.80897    1.000
    H209     H        0.26340    0.79590    0.80770    1.000
    C346     C        0.14100    0.83030    0.83153    1.000
    H210     H        0.16560    0.79950    0.84510    1.000
    C347     C        0.04560    0.87760    0.83392    1.000
    C348     C        0.01360    0.92370    0.81310    1.000
    H211     H        0.95060    0.95700    0.81430    1.000
    C349     C        0.07360    0.92070    0.79083    1.000
    H212     H        0.04930    0.95140    0.77720    1.000
    C350     C        0.00000    0.86020    0.88039    1.000
    C351     C        0.90650    0.84230    0.89553    1.000
    H213     H        0.83400    0.84540    0.88870    1.000
    C352     C        0.91920    0.82060    0.92000    1.000
    H214     H        0.85520    0.81020    0.92970    1.000
    C353     C        0.02710    0.81350    0.93103    1.000
    C354     C        0.11880    0.83200    0.91532    1.000
    H215     H        0.19160    0.82920    0.92200    1.000
    C355     C        0.10660    0.85400    0.89072    1.000
    H216     H        0.17030    0.86470    0.88090    1.000
    C356     C        0.96480    0.75300    0.99776    1.000
    H217     H        0.90070    0.74750    0.00790    1.000
    C357     C        0.94900    0.78160    0.97362    1.000
    H218     H        0.87740    0.79790    0.96830    1.000
    C358     C        0.04050    0.78610    0.95737    1.000
    C359     C        0.13940    0.77000    0.96807    1.000
    H219     H        0.20630    0.77860    0.95920    1.000
    C360     C        0.14360    0.74030    0.99264    1.000
    H220     H        0.21450    0.72420    0.99840    1.000
    C361     C        0.63850    0.70660    0.57634    1.000
    C362     C        0.71510    0.63530    0.57265    1.000
    C363     C        0.69660    0.58530    0.55252    1.000
    H221     H        0.63670    0.59540    0.54150    1.000
    C364     C        0.76610    0.51980    0.54842    1.000
    H222     H        0.75460    0.48710    0.53440    1.000
    C365     C        0.85270    0.50320    0.56527    1.000
    C366     C        0.87050    0.55420    0.58491    1.000
    H223     H        0.92970    0.54430    0.59610    1.000
    C367     C        0.80270    0.61960    0.58849    1.000
    H224     H        0.81700    0.65380    0.60200    1.000
    C368     C        0.92610    0.43270    0.56069    1.000
    Cd22     Cd       0.41535    0.83579    0.67779    1.000
    Cd23     Cd       0.52490    0.82415    0.61487    1.000
    Cd24     Cd       0.06716    0.30678    0.54942    1.000
    N22      N        0.35170    0.86220    0.71779    1.000
    N23      N        0.06310    0.73260    0.00780    1.000
    N24      N        0.97660    0.88360    0.85552    1.000
    O85      O        0.28050    0.93370    0.66524    1.000
    O86      O        0.37540    0.88260    0.63392    1.000
    O87      O        0.12210    0.26141    0.59307    1.000
    O88      O        0.19060    0.20462    0.55930    1.000
    O89      O        0.51740    0.74122    0.65118    1.000
    O90      O        0.53520    0.73020    0.69217    1.000
    O91      O        0.86620    0.40806    0.63563    1.000
    O92      O        0.94040    0.42676    0.67390    1.000
    O93      O        0.98480    0.40376    0.57842    1.000
    O94      O        0.93020    0.40330    0.53909    1.000
    O95      O        0.57790    0.72400    0.55785    1.000
    O96      O        0.64240    0.74051    0.59694    1.000
