# CIF file generated by openbabel 3.1.0, see https://openbabel.org
data_I
_chemical_name_common 'UQUHAQ_clean'
_cell_length_a 7.0077
_cell_length_b 7.8169
_cell_length_c 15.6586
_cell_angle_alpha 98.971
_cell_angle_beta 90
_cell_angle_gamma 90
_space_group_name_H-M_alt 'P 1'
_space_group_name_Hall 'P 1'
loop_
    _symmetry_equiv_pos_as_xyz
    x,y,z
loop_
    _atom_site_label
    _atom_site_type_symbol
    _atom_site_fract_x
    _atom_site_fract_y
    _atom_site_fract_z
    _atom_site_occupancy
    Ni1      Ni       0.74343    0.69995    0.35065    1.000
    Ni2      Ni       0.24343    0.30005    0.14935    1.000
    Ni3      Ni       0.25657    0.30005    0.64935    1.000
    Ni4      Ni       0.75657    0.69995    0.85065    1.000
    H1       H        0.92530    0.78310    0.53460    1.000
    H2       H        0.90750    0.35480    0.37060    1.000
    H3       H        0.69730    0.08270    0.39990    1.000
    H4       H        0.47760    0.71530    0.51090    1.000
    H5       H        0.86530    0.65210    0.16250    1.000
    H6       H        0.42530    0.21690    0.96540    1.000
    H7       H        0.40750    0.64520    0.12940    1.000
    H8       H        0.19730    0.91730    0.10010    1.000
    H9       H        0.97760    0.28470    0.98910    1.000
    H10      H        0.36530    0.34790    0.33750    1.000
    H11      H        0.07470    0.21690    0.46540    1.000
    H12      H        0.09250    0.64520    0.62940    1.000
    H13      H        0.30270    0.91730    0.60010    1.000
    H14      H        0.52240    0.28470    0.48910    1.000
    H15      H        0.13470    0.34790    0.83750    1.000
    H16      H        0.57470    0.78310    0.03460    1.000
    H17      H        0.59250    0.35480    0.87060    1.000
    H18      H        0.80270    0.08270    0.89990    1.000
    H19      H        0.02240    0.71530    0.01090    1.000
    H20      H        0.63470    0.65210    0.66250    1.000
    C1       C        0.95470    0.66630    0.51916    1.000
    C2       C        0.94420    0.41690    0.42358    1.000
    C3       C        0.61690    0.04630    0.44076    1.000
    C4       C        0.48880    0.83160    0.50550    1.000
    C5       C        0.92540    0.56360    0.18555    1.000
    C6       C        0.45470    0.33370    0.98084    1.000
    C7       C        0.44420    0.58310    0.07642    1.000
    C8       C        0.11690    0.95370    0.05924    1.000
    C9       C        0.98880    0.16840    0.99450    1.000
    C10      C        0.42540    0.43640    0.31445    1.000
    C11      C        0.04530    0.33370    0.48084    1.000
    C12      C        0.05580    0.58310    0.57642    1.000
    C13      C        0.38310    0.95370    0.55924    1.000
    C14      C        0.51120    0.16840    0.49450    1.000
    C15      C        0.07460    0.43640    0.81445    1.000
    C16      C        0.54530    0.66630    0.01916    1.000
    C17      C        0.55580    0.41690    0.92358    1.000
    C18      C        0.88310    0.04630    0.94076    1.000
    C19      C        0.01120    0.83160    0.00550    1.000
    C20      C        0.57460    0.56360    0.68555    1.000
    N1       N        0.89831    0.58341    0.44244    1.000
    N2       N        0.60636    0.87771    0.44606    1.000
    N3       N        0.39831    0.41659    0.05756    1.000
    N4       N        0.10636    0.12229    0.05394    1.000
    N5       N        0.10169    0.41659    0.55756    1.000
    N6       N        0.39364    0.12229    0.55394    1.000
    N7       N        0.60169    0.58341    0.94244    1.000
    N8       N        0.89364    0.87771    0.94606    1.000
    O1       O        0.88182    0.53363    0.25787    1.000
    O2       O        0.03704    0.48008    0.13244    1.000
    O3       O        0.38182    0.46637    0.24213    1.000
    O4       O        0.53704    0.51992    0.36756    1.000
    O5       O        0.11818    0.46637    0.74213    1.000
    O6       O        0.96296    0.51992    0.86756    1.000
    O7       O        0.61818    0.53363    0.75787    1.000
    O8       O        0.46296    0.48008    0.63244    1.000
