# CIF file generated by openbabel 3.1.0, see https://openbabel.org
data_I
_chemical_name_common 'image0'
_cell_length_a 22.028
_cell_length_b 12.607
_cell_length_c 23.179
_cell_angle_alpha 90
_cell_angle_beta 103.76
_cell_angle_gamma 90
_space_group_name_H-M_alt 'P 1'
_space_group_name_Hall 'P 1'
loop_
    _symmetry_equiv_pos_as_xyz
    x,y,z
loop_
    _atom_site_label
    _atom_site_type_symbol
    _atom_site_fract_x
    _atom_site_fract_y
    _atom_site_fract_z
    _atom_site_occupancy
    O1       O        0.59944    0.38252    0.24409    1.000
    Cd1      Cd       0.59752    0.66775    0.27060    1.000
    C1       C        0.64994    0.43110    0.25909    1.000
    O2       O        0.65759    0.52158    0.28069    1.000
    O3       O        0.55083    0.82607    0.27125    1.000
    N1       N        0.81147    0.26637    0.23330    1.000
    C2       C        0.70679    0.37280    0.25005    1.000
    C3       C        0.70129    0.27640    0.22155    1.000
    C4       C        0.76581    0.41530    0.27009    1.000
    H1       H        0.66230    0.24520    0.20780    1.000
    C5       C        0.75467    0.22660    0.21371    1.000
    C6       C        0.81626    0.35970    0.26114    1.000
    H2       H        0.77120    0.48050    0.28930    1.000
    C7       C        0.55313    0.04640    0.27673    1.000
    H3       H        0.75050    0.16200    0.19370    1.000
    H4       H        0.85590    0.38860    0.27520    1.000
    H5       H        0.58960    0.01110    0.29530    1.000
    C8       C        0.55113    0.15540    0.27542    1.000
    H6       H        0.58730    0.19250    0.29320    1.000
    N2       N        0.52603    0.38746    0.35514    1.000
    C9       C        0.58195    0.35530    0.38701    1.000
    C10      C        0.48211    0.40320    0.38527    1.000
    H7       H        0.61310    0.34250    0.36700    1.000
    C11      C        0.59608    0.34000    0.44738    1.000
    C12      C        0.49217    0.38920    0.44546    1.000
    H8       H        0.44260    0.42480    0.36430    1.000
    H9       H        0.63590    0.31810    0.46720    1.000
    C13      C        0.55048    0.35740    0.47841    1.000
    H10      H        0.45990    0.40090    0.46420    1.000
    C14      C        0.56288    0.34530    0.54345    1.000
    C15      C        0.62066    0.37180    0.58020    1.000
    C16      C        0.51749    0.31020    0.57101    1.000
    H11      H        0.65340    0.39320    0.56390    1.000
    C17      C        0.62876    0.36580    0.64071    1.000
    C18      C        0.52975    0.30560    0.63172    1.000
    H12      H        0.47850    0.28970    0.54830    1.000
    N3       N        0.58441    0.33470    0.66716    1.000
    H13      H        0.66750    0.38450    0.66460    1.000
    H14      H        0.49850    0.28100    0.64920    1.000
    N4       N        0.62946    0.68454    0.37386    1.000
    C19      C        0.65240    0.60330    0.40887    1.000
    C20      C        0.62897    0.77900    0.40022    1.000
    H15      H        0.65540    0.53770    0.39140    1.000
    C21      C        0.67190    0.61140    0.46968    1.000
    C22      C        0.64847    0.79260    0.46079    1.000
    H16      H        0.61490    0.83780    0.37660    1.000
    H17      H        0.68670    0.55160    0.49210    1.000
    C23      C        0.66978    0.70700    0.49751    1.000
    H18      H        0.64730    0.85970    0.47710    1.000
    C24      C        0.68990    0.71780    0.56396    1.000
    H19      H        0.70170    0.79000    0.57410    1.000
    H20      H        0.72500    0.67200    0.57900    1.000
    H21      H        0.65600    0.69830    0.58120    1.000
    O4       O        0.09944    0.88252    0.24409    1.000
    Cd2      Cd       0.09752    0.16775    0.27060    1.000
    C25      C        0.14994    0.93110    0.25909    1.000
    O5       O        0.15759    0.02158    0.28069    1.000
    O6       O        0.05083    0.32607    0.27125    1.000
    N5       N        0.31147    0.76637    0.23330    1.000
    C26      C        0.20679    0.87280    0.25005    1.000
    C27      C        0.20129    0.77640    0.22155    1.000
    C28      C        0.26581    0.91530    0.27009    1.000
    H22      H        0.16230    0.74520    0.20780    1.000
    C29      C        0.25467    0.72660    0.21371    1.000
    C30      C        0.31626    0.85970    0.26114    1.000
    H23      H        0.27120    0.98050    0.28930    1.000
    C31      C        0.05313    0.54640    0.27673    1.000
    H24      H        0.25050    0.66200    0.19370    1.000
    H25      H        0.35590    0.88860    0.27520    1.000
    H26      H        0.08960    0.51110    0.29530    1.000
    C32      C        0.05113    0.65540    0.27542    1.000
    H27      H        0.08730    0.69250    0.29320    1.000
    N6       N        0.02603    0.88746    0.35514    1.000
    C33      C        0.08195    0.85530    0.38701    1.000
    C34      C        0.98211    0.90320    0.38527    1.000
    H28      H        0.11310    0.84250    0.36700    1.000
    C35      C        0.09608    0.84000    0.44738    1.000
    C36      C        0.99217    0.88920    0.44546    1.000
    H29      H        0.94260    0.92480    0.36430    1.000
    H30      H        0.13590    0.81810    0.46720    1.000
    C37      C        0.05048    0.85740    0.47841    1.000
    H31      H        0.95990    0.90090    0.46420    1.000
    C38      C        0.06288    0.84530    0.54345    1.000
    C39      C        0.12066    0.87180    0.58020    1.000
    C40      C        0.01749    0.81020    0.57101    1.000
    H32      H        0.15340    0.89320    0.56390    1.000
    C41      C        0.12876    0.86580    0.64071    1.000
    C42      C        0.02975    0.80560    0.63172    1.000
    H33      H        0.97850    0.78970    0.54830    1.000
    N7       N        0.08441    0.83470    0.66716    1.000
    H34      H        0.16750    0.88450    0.66460    1.000
    H35      H        0.99850    0.78100    0.64920    1.000
    N8       N        0.12946    0.18454    0.37386    1.000
    C43      C        0.15240    0.10330    0.40887    1.000
    C44      C        0.12897    0.27900    0.40022    1.000
    H36      H        0.15540    0.03770    0.39140    1.000
    C45      C        0.17190    0.11140    0.46968    1.000
    C46      C        0.14847    0.29260    0.46079    1.000
    H37      H        0.11490    0.33780    0.37660    1.000
    H38      H        0.18670    0.05160    0.49210    1.000
    C47      C        0.16978    0.20700    0.49751    1.000
    H39      H        0.14730    0.35970    0.47710    1.000
    C48      C        0.18990    0.21780    0.56396    1.000
    H40      H        0.20170    0.29000    0.57410    1.000
    H41      H        0.22500    0.17200    0.57900    1.000
    H42      H        0.15600    0.19830    0.58120    1.000
    O7       O        0.40056    0.38252    0.25591    1.000
    Cd3      Cd       0.40248    0.66775    0.22940    1.000
    C49      C        0.35006    0.43110    0.24091    1.000
    O8       O        0.34241    0.52158    0.21931    1.000
    O9       O        0.44917    0.82607    0.22875    1.000
    N9       N        0.18853    0.26637    0.26670    1.000
    C50      C        0.29321    0.37280    0.24995    1.000
    C51      C        0.29871    0.27640    0.27845    1.000
    C52      C        0.23419    0.41530    0.22991    1.000
    H43      H        0.33770    0.24520    0.29220    1.000
    C53      C        0.24533    0.22660    0.28629    1.000
    C54      C        0.18374    0.35970    0.23886    1.000
    H44      H        0.22880    0.48050    0.21070    1.000
    C55      C        0.44687    0.04640    0.22327    1.000
    H45      H        0.24950    0.16200    0.30630    1.000
    H46      H        0.14410    0.38860    0.22480    1.000
    H47      H        0.41040    0.01110    0.20470    1.000
    C56      C        0.44887    0.15540    0.22458    1.000
    H48      H        0.41270    0.19250    0.20680    1.000
    N10      N        0.47397    0.38746    0.14486    1.000
    C57      C        0.41805    0.35530    0.11299    1.000
    C58      C        0.51789    0.40320    0.11473    1.000
    H49      H        0.38690    0.34250    0.13300    1.000
    C59      C        0.40392    0.34000    0.05262    1.000
    C60      C        0.50783    0.38920    0.05454    1.000
    H50      H        0.55740    0.42480    0.13570    1.000
    H51      H        0.36410    0.31810    0.03280    1.000
    C61      C        0.44952    0.35740    0.02159    1.000
    H52      H        0.54010    0.40090    0.03580    1.000
    C62      C        0.43712    0.34530    0.95655    1.000
    C63      C        0.37934    0.37180    0.91980    1.000
    C64      C        0.48251    0.31020    0.92899    1.000
    H53      H        0.34660    0.39320    0.93610    1.000
    C65      C        0.37124    0.36580    0.85929    1.000
    C66      C        0.47025    0.30560    0.86828    1.000
    H54      H        0.52150    0.28970    0.95170    1.000
    N11      N        0.41559    0.33470    0.83284    1.000
    H55      H        0.33250    0.38450    0.83540    1.000
    H56      H        0.50150    0.28100    0.85080    1.000
    N12      N        0.37054    0.68454    0.12614    1.000
    C67      C        0.34760    0.60330    0.09113    1.000
    C68      C        0.37103    0.77900    0.09978    1.000
    H57      H        0.34460    0.53770    0.10860    1.000
    C69      C        0.32810    0.61140    0.03032    1.000
    C70      C        0.35153    0.79260    0.03921    1.000
    H58      H        0.38510    0.83780    0.12340    1.000
    H59      H        0.31330    0.55160    0.00790    1.000
    C71      C        0.33022    0.70700    0.00249    1.000
    H60      H        0.35270    0.85970    0.02290    1.000
    C72      C        0.31010    0.71780    0.93604    1.000
    H61      H        0.29830    0.79000    0.92590    1.000
    H62      H        0.27500    0.67200    0.92100    1.000
    H63      H        0.34400    0.69830    0.91880    1.000
    O10      O        0.90056    0.88252    0.25591    1.000
    Cd4      Cd       0.90247    0.16775    0.22940    1.000
    C73      C        0.85006    0.93110    0.24091    1.000
    O11      O        0.84241    0.02158    0.21931    1.000
    O12      O        0.94917    0.32607    0.22875    1.000
    N13      N        0.68853    0.76637    0.26670    1.000
    C74      C        0.79321    0.87280    0.24995    1.000
    C75      C        0.79871    0.77640    0.27845    1.000
    C76      C        0.73419    0.91530    0.22991    1.000
    H64      H        0.83770    0.74520    0.29220    1.000
    C77      C        0.74533    0.72660    0.28629    1.000
    C78      C        0.68374    0.85970    0.23886    1.000
    H65      H        0.72880    0.98050    0.21070    1.000
    C79      C        0.94687    0.54640    0.22327    1.000
    H66      H        0.74950    0.66200    0.30630    1.000
    H67      H        0.64410    0.88860    0.22480    1.000
    H68      H        0.91040    0.51110    0.20470    1.000
    C80      C        0.94887    0.65540    0.22458    1.000
    H69      H        0.91270    0.69250    0.20680    1.000
    N14      N        0.97397    0.88746    0.14486    1.000
    C81      C        0.91805    0.85530    0.11299    1.000
    C82      C        0.01789    0.90320    0.11473    1.000
    H70      H        0.88690    0.84250    0.13300    1.000
    C83      C        0.90392    0.84000    0.05262    1.000
    C84      C        0.00783    0.88920    0.05454    1.000
    H71      H        0.05740    0.92480    0.13570    1.000
    H72      H        0.86410    0.81810    0.03280    1.000
    C85      C        0.94952    0.85740    0.02159    1.000
    H73      H        0.04010    0.90090    0.03580    1.000
    C86      C        0.93712    0.84530    0.95655    1.000
    C87      C        0.87934    0.87180    0.91980    1.000
    C88      C        0.98251    0.81020    0.92899    1.000
    H74      H        0.84660    0.89320    0.93610    1.000
    C89      C        0.87124    0.86580    0.85929    1.000
    C90      C        0.97025    0.80560    0.86828    1.000
    H75      H        0.02150    0.78970    0.95170    1.000
    N15      N        0.91559    0.83470    0.83284    1.000
    H76      H        0.83250    0.88450    0.83540    1.000
    H77      H        0.00150    0.78100    0.85080    1.000
    N16      N        0.87054    0.18454    0.12614    1.000
    C91      C        0.84760    0.10330    0.09113    1.000
    C92      C        0.87103    0.27900    0.09978    1.000
    H78      H        0.84460    0.03770    0.10860    1.000
    C93      C        0.82810    0.11140    0.03032    1.000
    C94      C        0.85153    0.29260    0.03921    1.000
    H79      H        0.88510    0.33780    0.12340    1.000
    H80      H        0.81330    0.05160    0.00790    1.000
    C95      C        0.83022    0.20700    0.00249    1.000
    H81      H        0.85270    0.35970    0.02290    1.000
    C96      C        0.81010    0.21780    0.93604    1.000
    H82      H        0.79830    0.29000    0.92590    1.000
    H83      H        0.77500    0.17200    0.92100    1.000
    H84      H        0.84400    0.19830    0.91880    1.000
    O13      O        0.40056    0.61748    0.75591    1.000
    Cd5      Cd       0.40248    0.33225    0.72940    1.000
    C97      C        0.35006    0.56890    0.74091    1.000
    O14      O        0.34241    0.47842    0.71931    1.000
    O15      O        0.44917    0.17393    0.72875    1.000
    N17      N        0.18853    0.73363    0.76670    1.000
    C98      C        0.29321    0.62720    0.74995    1.000
    C99      C        0.29871    0.72360    0.77845    1.000
    C100     C        0.23419    0.58470    0.72991    1.000
    H85      H        0.33770    0.75480    0.79220    1.000
    C101     C        0.24533    0.77340    0.78629    1.000
    C102     C        0.18374    0.64030    0.73886    1.000
    H86      H        0.22880    0.51950    0.71070    1.000
    C103     C        0.44687    0.95360    0.72327    1.000
    H87      H        0.24950    0.83800    0.80630    1.000
    H88      H        0.14410    0.61140    0.72480    1.000
    H89      H        0.41040    0.98890    0.70470    1.000
    C104     C        0.44887    0.84460    0.72458    1.000
    H90      H        0.41270    0.80750    0.70680    1.000
    N18      N        0.47397    0.61254    0.64486    1.000
    C105     C        0.41805    0.64470    0.61299    1.000
    C106     C        0.51789    0.59680    0.61473    1.000
    H91      H        0.38690    0.65750    0.63300    1.000
    C107     C        0.40392    0.66000    0.55262    1.000
    C108     C        0.50783    0.61080    0.55454    1.000
    H92      H        0.55740    0.57520    0.63570    1.000
    H93      H        0.36410    0.68190    0.53280    1.000
    C109     C        0.44952    0.64260    0.52159    1.000
    H94      H        0.54010    0.59910    0.53580    1.000
    C110     C        0.43712    0.65470    0.45655    1.000
    C111     C        0.37934    0.62820    0.41980    1.000
    C112     C        0.48251    0.68980    0.42899    1.000
    H95      H        0.34660    0.60680    0.43610    1.000
    C113     C        0.37124    0.63420    0.35929    1.000
    C114     C        0.47025    0.69440    0.36828    1.000
    H96      H        0.52150    0.71030    0.45170    1.000
    N19      N        0.41559    0.66530    0.33284    1.000
    H97      H        0.33250    0.61550    0.33540    1.000
    H98      H        0.50150    0.71900    0.35080    1.000
    N20      N        0.37054    0.31546    0.62614    1.000
    C115     C        0.34760    0.39670    0.59113    1.000
    C116     C        0.37103    0.22100    0.59978    1.000
    H99      H        0.34460    0.46230    0.60860    1.000
    C117     C        0.32810    0.38860    0.53032    1.000
    C118     C        0.35153    0.20740    0.53921    1.000
    H100     H        0.38510    0.16220    0.62340    1.000
    H101     H        0.31330    0.44840    0.50790    1.000
    C119     C        0.33022    0.29300    0.50249    1.000
    H102     H        0.35270    0.14030    0.52290    1.000
    C120     C        0.31010    0.28220    0.43604    1.000
    H103     H        0.29830    0.21000    0.42590    1.000
    H104     H        0.27500    0.32800    0.42100    1.000
    H105     H        0.34400    0.30170    0.41880    1.000
    O16      O        0.90056    0.11748    0.75591    1.000
    Cd6      Cd       0.90247    0.83225    0.72940    1.000
    C121     C        0.85006    0.06890    0.74091    1.000
    O17      O        0.84241    0.97842    0.71931    1.000
    O18      O        0.94917    0.67393    0.72875    1.000
    N21      N        0.68853    0.23363    0.76670    1.000
    C122     C        0.79321    0.12720    0.74995    1.000
    C123     C        0.79871    0.22360    0.77845    1.000
    C124     C        0.73419    0.08470    0.72991    1.000
    H106     H        0.83770    0.25480    0.79220    1.000
    C125     C        0.74533    0.27340    0.78629    1.000
    C126     C        0.68374    0.14030    0.73886    1.000
    H107     H        0.72880    0.01950    0.71070    1.000
    C127     C        0.94687    0.45360    0.72327    1.000
    H108     H        0.74950    0.33800    0.80630    1.000
    H109     H        0.64410    0.11140    0.72480    1.000
    H110     H        0.91040    0.48890    0.70470    1.000
    C128     C        0.94887    0.34460    0.72458    1.000
    H111     H        0.91270    0.30750    0.70680    1.000
    N22      N        0.97397    0.11254    0.64486    1.000
    C129     C        0.91805    0.14470    0.61299    1.000
    C130     C        0.01789    0.09680    0.61473    1.000
    H112     H        0.88690    0.15750    0.63300    1.000
    C131     C        0.90392    0.16000    0.55262    1.000
    C132     C        0.00783    0.11080    0.55454    1.000
    H113     H        0.05740    0.07520    0.63570    1.000
    H114     H        0.86410    0.18190    0.53280    1.000
    C133     C        0.94952    0.14260    0.52159    1.000
    H115     H        0.04010    0.09910    0.53580    1.000
    C134     C        0.93712    0.15470    0.45655    1.000
    C135     C        0.87934    0.12820    0.41980    1.000
    C136     C        0.98251    0.18980    0.42899    1.000
    H116     H        0.84660    0.10680    0.43610    1.000
    C137     C        0.87124    0.13420    0.35929    1.000
    C138     C        0.97025    0.19440    0.36828    1.000
    H117     H        0.02150    0.21030    0.45170    1.000
    N23      N        0.91559    0.16530    0.33284    1.000
    H118     H        0.83250    0.11550    0.33540    1.000
    H119     H        0.00150    0.21900    0.35080    1.000
    N24      N        0.87054    0.81546    0.62614    1.000
    C139     C        0.84760    0.89670    0.59113    1.000
    C140     C        0.87103    0.72100    0.59978    1.000
    H120     H        0.84460    0.96230    0.60860    1.000
    C141     C        0.82810    0.88860    0.53032    1.000
    C142     C        0.85153    0.70740    0.53921    1.000
    H121     H        0.88510    0.66220    0.62340    1.000
    H122     H        0.81330    0.94840    0.50790    1.000
    C143     C        0.83022    0.79300    0.50249    1.000
    H123     H        0.85270    0.64030    0.52290    1.000
    C144     C        0.81010    0.78220    0.43604    1.000
    H124     H        0.79830    0.71000    0.42590    1.000
    H125     H        0.77500    0.82800    0.42100    1.000
    H126     H        0.84400    0.80170    0.41880    1.000
    O19      O        0.59944    0.61748    0.74409    1.000
    Cd7      Cd       0.59752    0.33225    0.77060    1.000
    C145     C        0.64994    0.56890    0.75909    1.000
    O20      O        0.65759    0.47842    0.78069    1.000
    O21      O        0.55083    0.17393    0.77125    1.000
    N25      N        0.81147    0.73363    0.73330    1.000
    C146     C        0.70679    0.62720    0.75005    1.000
    C147     C        0.70129    0.72360    0.72155    1.000
    C148     C        0.76581    0.58470    0.77009    1.000
    H127     H        0.66230    0.75480    0.70780    1.000
    C149     C        0.75467    0.77340    0.71371    1.000
    C150     C        0.81626    0.64030    0.76114    1.000
    H128     H        0.77120    0.51950    0.78930    1.000
    C151     C        0.55313    0.95360    0.77673    1.000
    H129     H        0.75050    0.83800    0.69370    1.000
    H130     H        0.85590    0.61140    0.77520    1.000
    H131     H        0.58960    0.98890    0.79530    1.000
    C152     C        0.55113    0.84460    0.77542    1.000
    H132     H        0.58730    0.80750    0.79320    1.000
    N26      N        0.52603    0.61254    0.85514    1.000
    C153     C        0.58195    0.64470    0.88701    1.000
    C154     C        0.48211    0.59680    0.88527    1.000
    H133     H        0.61310    0.65750    0.86700    1.000
    C155     C        0.59608    0.66000    0.94738    1.000
    C156     C        0.49217    0.61080    0.94546    1.000
    H134     H        0.44260    0.57520    0.86430    1.000
    H135     H        0.63590    0.68190    0.96720    1.000
    C157     C        0.55048    0.64260    0.97841    1.000
    H136     H        0.45990    0.59910    0.96420    1.000
    C158     C        0.56288    0.65470    0.04345    1.000
    C159     C        0.62066    0.62820    0.08020    1.000
    C160     C        0.51749    0.68980    0.07101    1.000
    H137     H        0.65340    0.60680    0.06390    1.000
    C161     C        0.62876    0.63420    0.14071    1.000
    C162     C        0.52975    0.69440    0.13172    1.000
    H138     H        0.47850    0.71030    0.04830    1.000
    N27      N        0.58441    0.66530    0.16716    1.000
    H139     H        0.66750    0.61550    0.16460    1.000
    H140     H        0.49850    0.71900    0.14920    1.000
    N28      N        0.62946    0.31546    0.87386    1.000
    C163     C        0.65240    0.39670    0.90887    1.000
    C164     C        0.62897    0.22100    0.90022    1.000
    H141     H        0.65540    0.46230    0.89140    1.000
    C165     C        0.67190    0.38860    0.96968    1.000
    C166     C        0.64847    0.20740    0.96079    1.000
    H142     H        0.61490    0.16220    0.87660    1.000
    H143     H        0.68670    0.44840    0.99210    1.000
    C167     C        0.66978    0.29300    0.99751    1.000
    H144     H        0.64730    0.14030    0.97710    1.000
    C168     C        0.68990    0.28220    0.06396    1.000
    H145     H        0.70170    0.21000    0.07410    1.000
    H146     H        0.72500    0.32800    0.07900    1.000
    H147     H        0.65600    0.30170    0.08120    1.000
    O22      O        0.09944    0.11748    0.74409    1.000
    Cd8      Cd       0.09752    0.83225    0.77060    1.000
    C169     C        0.14994    0.06890    0.75909    1.000
    O23      O        0.15759    0.97842    0.78069    1.000
    O24      O        0.05083    0.67393    0.77125    1.000
    N29      N        0.31147    0.23363    0.73330    1.000
    C170     C        0.20679    0.12720    0.75005    1.000
    C171     C        0.20129    0.22360    0.72155    1.000
    C172     C        0.26581    0.08470    0.77009    1.000
    H148     H        0.16230    0.25480    0.70780    1.000
    C173     C        0.25467    0.27340    0.71371    1.000
    C174     C        0.31626    0.14030    0.76114    1.000
    H149     H        0.27120    0.01950    0.78930    1.000
    C175     C        0.05313    0.45360    0.77673    1.000
    H150     H        0.25050    0.33800    0.69370    1.000
    H151     H        0.35590    0.11140    0.77520    1.000
    H152     H        0.08960    0.48890    0.79530    1.000
    C176     C        0.05113    0.34460    0.77542    1.000
    H153     H        0.08730    0.30750    0.79320    1.000
    N30      N        0.02603    0.11254    0.85514    1.000
    C177     C        0.08195    0.14470    0.88701    1.000
    C178     C        0.98211    0.09680    0.88527    1.000
    H154     H        0.11310    0.15750    0.86700    1.000
    C179     C        0.09608    0.16000    0.94738    1.000
    C180     C        0.99217    0.11080    0.94546    1.000
    H155     H        0.94260    0.07520    0.86430    1.000
    H156     H        0.13590    0.18190    0.96720    1.000
    C181     C        0.05048    0.14260    0.97841    1.000
    H157     H        0.95990    0.09910    0.96420    1.000
    C182     C        0.06288    0.15470    0.04345    1.000
    C183     C        0.12066    0.12820    0.08020    1.000
    C184     C        0.01749    0.18980    0.07101    1.000
    H158     H        0.15340    0.10680    0.06390    1.000
    C185     C        0.12876    0.13420    0.14071    1.000
    C186     C        0.02975    0.19440    0.13172    1.000
    H159     H        0.97850    0.21030    0.04830    1.000
    N31      N        0.08441    0.16530    0.16716    1.000
    H160     H        0.16750    0.11550    0.16460    1.000
    H161     H        0.99850    0.21900    0.14920    1.000
    N32      N        0.12946    0.81546    0.87386    1.000
    C187     C        0.15240    0.89670    0.90887    1.000
    C188     C        0.12897    0.72100    0.90022    1.000
    H162     H        0.15540    0.96230    0.89140    1.000
    C189     C        0.17190    0.88860    0.96968    1.000
    C190     C        0.14847    0.70740    0.96079    1.000
    H163     H        0.11490    0.66220    0.87660    1.000
    H164     H        0.18670    0.94840    0.99210    1.000
    C191     C        0.16978    0.79300    0.99751    1.000
    H165     H        0.14730    0.64030    0.97710    1.000
    C192     C        0.18990    0.78220    0.06396    1.000
    H166     H        0.20170    0.71000    0.07410    1.000
    H167     H        0.22500    0.82800    0.07900    1.000
    H168     H        0.15600    0.80170    0.08120    1.000
    Cd9      Cd       0.50000    0.40081    0.25000    1.000
    F1       F        0.50000    0.58244    0.25000    1.000
    N33      N        0.50000    0.21100    0.25000    1.000
    C193     C        0.50000    0.87060    0.25000    1.000
    C194     C        0.50000    0.99010    0.25000    1.000
    Cd10     Cd       0.00000    0.90081    0.25000    1.000
    F2       F        0.00000    0.08244    0.25000    1.000
    N34      N        0.00000    0.71100    0.25000    1.000
    C195     C        0.00000    0.37060    0.25000    1.000
    C196     C        0.00000    0.49010    0.25000    1.000
    Cd11     Cd       0.50000    0.59919    0.75000    1.000
    F3       F        0.50000    0.41756    0.75000    1.000
    N35      N        0.50000    0.78900    0.75000    1.000
    C197     C        0.50000    0.12940    0.75000    1.000
    C198     C        0.50000    0.00990    0.75000    1.000
    Cd12     Cd       0.00000    0.09919    0.75000    1.000
    F4       F        0.00000    0.91756    0.75000    1.000
    N36      N        0.00000    0.28900    0.75000    1.000
    C199     C        0.00000    0.62940    0.75000    1.000
    C200     C        0.00000    0.50990    0.75000    1.000
