# CIF file generated by openbabel 3.1.0, see https://openbabel.org
data_I
_chemical_name_common 'image0'
_cell_length_a 24.0921
_cell_length_b 24.1914
_cell_length_c 24.3992
_cell_angle_alpha 85.807
_cell_angle_beta 61.404
_cell_angle_gamma 61.029
_space_group_name_H-M_alt 'P 1'
_space_group_name_Hall 'P 1'
loop_
    _symmetry_equiv_pos_as_xyz
    x,y,z
loop_
    _atom_site_label
    _atom_site_type_symbol
    _atom_site_fract_x
    _atom_site_fract_y
    _atom_site_fract_z
    _atom_site_occupancy
    Tb1      Tb       0.36467    0.84485    0.19740    1.000
    O1       O        0.25550    0.87210    0.20050    1.000
    O2       O        0.29690    0.96080    0.22080    1.000
    O3       O        0.38550    0.86880    0.09540    1.000
    O4       O        0.45440    0.87410    0.16130    1.000
    O5       O        0.40530    0.74970    0.13040    1.000
    O6       O        0.34260    0.88000    0.29790    1.000
    O7       O        0.46650    0.76060    0.20340    1.000
    O8       O        0.31140    0.79060    0.27100    1.000
    N1       N        0.21570    0.84430    0.22500    1.000
    N2       N        0.23160    0.99900    0.22430    1.000
    N3       N        0.37040    0.84790    0.05810    1.000
    N4       N        0.46680    0.90890    0.11730    1.000
    N5       N        0.44910    0.69070    0.13430    1.000
    C1       C        0.23490    0.79040    0.19090    1.000
    C2       C        0.15590    0.87050    0.28480    1.000
    C3       C        0.22970    0.01860    0.17230    1.000
    C4       C        0.16930    0.01540    0.28050    1.000
    C5       C        0.29900    0.88010    0.07060    1.000
    C6       C        0.42300    0.79590    0.01100    1.000
    C7       C        0.42750    0.97360    0.13430    1.000
    C8       C        0.51850    0.87820    0.05690    1.000
    C9       C        0.41920    0.65990    0.17640    1.000
    C10      C        0.52260    0.66410    0.09840    1.000
    H1       H        0.27720    0.77240    0.14930    1.000
    C11      C        0.19350    0.76100    0.21600    1.000
    C12      C        0.11340    0.84250    0.31160    1.000
    H2       H        0.14330    0.90840    0.30840    1.000
    H3       H        0.27420    0.00820    0.13400    1.000
    C13      C        0.16320    0.05410    0.17400    1.000
    C14      C        0.10110    0.05250    0.28490    1.000
    H4       H        0.17210    0.00160    0.31710    1.000
    H5       H        0.26210    0.91660    0.10470    1.000
    C15      C        0.28120    0.85930    0.03370    1.000
    C16      C        0.40530    0.77440    0.97380    1.000
    H6       H        0.47200    0.77380    0.00300    1.000
    H7       H        0.39120    0.99410    0.17770    1.000
    C17      C        0.43960    0.01100    0.08840    1.000
    C18      C        0.53220    0.91390    0.00980    1.000
    H8       H        0.54580    0.83240    0.04600    1.000
    H9       H        0.36750    0.67740    0.19880    1.000
    C19      C        0.46420    0.60330    0.18640    1.000
    C20      C        0.57000    0.60640    0.10610    1.000
    H10      H        0.54220    0.68530    0.06710    1.000
    H11      H        0.20730    0.72320    0.19130    1.000
    C21      C        0.13140    0.78640    0.27740    1.000
    H12      H        0.07170    0.86120    0.35340    1.000
    H13      H        0.16230    0.06730    0.13670    1.000
    C22      C        0.09740    0.07050    0.23050    1.000
    H14      H        0.05720    0.06560    0.32490    1.000
    H15      H        0.23230    0.88270    0.04150    1.000
    C23      C        0.33450    0.80410    0.98480    1.000
    H16      H        0.44330    0.73810    0.93970    1.000
    H17      H        0.41180    0.05670    0.10060    1.000
    C24      C        0.49250    0.98100    0.02470    1.000
    H18      H        0.56930    0.89200    0.96690    1.000
    H19      H        0.44300    0.58200    0.21640    1.000
    C25      C        0.54050    0.57610    0.15350    1.000
    H20      H        0.62180    0.58740    0.07960    1.000
    C26      C        0.08420    0.75740    0.30590    1.000
    C27      C        0.02610    0.10430    0.23320    1.000
    C28      C        0.31280    0.78050    0.94870    1.000
    C29      C        0.58790    0.52150    0.17100    1.000
    C30      C        0.10540    0.69740    0.27790    1.000
    C31      C        0.01630    0.79000    0.36100    1.000
    C32      C        0.01710    0.08910    0.18560    1.000
    C33      C        0.96240    0.15060    0.28810    1.000
    C34      C        0.24450    0.81990    0.95320    1.000
    C35      C        0.35780    0.71910    0.91010    1.000
    C36      C        0.65850    0.47480    0.12630    1.000
    C37      C        0.56600    0.51900    0.23480    1.000
    C38      C        0.05860    0.67340    0.30320    1.000
    H21      H        0.15260    0.67260    0.24090    1.000
    H22      H        0.00120    0.83050    0.38180    1.000
    C39      C        0.97010    0.76620    0.38680    1.000
    C40      C        0.94860    0.11640    0.19320    1.000
    H23      H        0.05900    0.05940    0.14730    1.000
    H24      H        0.96660    0.16360    0.32100    1.000
    C41      C        0.89350    0.17720    0.29420    1.000
    C42      C        0.22180    0.79700    0.92220    1.000
    H25      H        0.21330    0.86280    0.97770    1.000
    H26      H        0.40560    0.69200    0.90430    1.000
    C43      C        0.33360    0.69690    0.87990    1.000
    C44      C        0.70480    0.42810    0.14510    1.000
    H27      H        0.67560    0.47450    0.08220    1.000
    H28      H        0.51780    0.55040    0.26700    1.000
    C45      C        0.61270    0.47180    0.25220    1.000
    N6       N        0.99200    0.70750    0.35660    1.000
    H29      H        0.07330    0.63270    0.28310    1.000
    H30      H        0.92370    0.78980    0.42480    1.000
    N7       N        0.88810    0.15830    0.24730    1.000
    H31      H        0.94360    0.10570    0.15980    1.000
    H32      H        0.85060    0.20840    0.33120    1.000
    N8       N        0.26610    0.73610    0.88720    1.000
    H33      H        0.17520    0.82400    0.92560    1.000
    H34      H        0.36430    0.65460    0.85440    1.000
    N9       N        0.68110    0.42740    0.20780    1.000
    H35      H        0.75330    0.39630    0.11380    1.000
    H36      H        0.59630    0.47070    0.29600    1.000
    O9       O        0.94600    0.68520    0.37980    1.000
    O10      O        0.82130    0.18110    0.25540    1.000
    O11      O        0.24170    0.71460    0.86050    1.000
    O12      O        0.72680    0.38440    0.22460    1.000
    Tb2      Tb       0.85268    0.71394    0.35427    1.000
    Tb3      Tb       0.74307    0.28141    0.24174    1.000
    O13      O        0.88380    0.61070    0.37810    1.000
    O14      O        0.78220    0.73340    0.46930    1.000
    O15      O        0.79410    0.79110    0.30440    1.000
    O16      O        0.82470    0.81640    0.39340    1.000
    O17      O        0.74850    0.70880    0.37960    1.000
    O18      O        0.94930    0.71970    0.26790    1.000
    O19      O        0.89010    0.64750    0.26130    1.000
    O20      O        0.71750    0.20400    0.22040    1.000
    O21      O        0.77170    0.31180    0.31070    1.000
    O22      O        0.66510    0.27650    0.34500    1.000
    O23      O        0.61940    0.34730    0.26190    1.000
    O24      O        0.86530    0.26020    0.17540    1.000
    N10      N        0.91550    0.58200    0.41200    1.000
    N11      N        0.76420    0.78250    0.50790    1.000
    N12      N        0.74940    0.79170    0.28710    1.000
    N13      N        0.80900    0.86920    0.36930    1.000
    N14      N        0.70440    0.69760    0.43150    1.000
    N15      N        0.96820    0.71780    0.20650    1.000
    N16      N        0.73030    0.14980    0.24200    1.000
    N17      N        0.79170    0.35570    0.30340    1.000
    N18      N        0.67420    0.26930    0.39550    1.000
    N19      N        0.56190    0.34480    0.30820    1.000
    N20      N        0.10510    0.73420    0.88480    1.000
    C46      C        0.98880    0.54210    0.38190    1.000
    C47      C        0.87390    0.59300    0.47600    1.000
    C48      C        0.81280    0.77850    0.52340    1.000
    C49      C        0.69580    0.83640    0.53230    1.000
    C50      C        0.67580    0.82570    0.32780    1.000
    C51      C        0.77850    0.75760    0.22860    1.000
    C52      C        0.86420    0.87600    0.32160    1.000
    C53      C        0.73880    0.91490    0.39010    1.000
    C54      C        0.63820    0.74950    0.47510    1.000
    C55      C        0.72380    0.63640    0.43990    1.000
    C56      C        0.93290    0.77230    0.18910    1.000
    C57      C        0.02390    0.66170    0.16270    1.000
    C58      C        0.68020    0.15070    0.30070    1.000
    C59      C        0.79370    0.09390    0.20550    1.000
    C60      C        0.86380    0.33730    0.26520    1.000
    C61      C        0.73950    0.41720    0.33350    1.000
    C62      C        0.71570    0.20870    0.40080    1.000
    C63      C        0.64280    0.32070    0.43900    1.000
    C64      C        0.54660    0.30170    0.29720    1.000
    C65      C        0.51940    0.38610    0.36600    1.000
    C66      C        0.10890    0.67810    0.89870    1.000
    C67      C        0.07250    0.78510    0.93070    1.000
    H37      H        0.01750    0.53670    0.33710    1.000
    C68      C        0.02250    0.50930    0.41510    1.000
    C69      C        0.90800    0.56110    0.51070    1.000
    H38      H        0.82220    0.62210    0.49710    1.000
    H39      H        0.85830    0.73910    0.50950    1.000
    C70      C        0.79640    0.83160    0.55950    1.000
    C71      C        0.67870    0.88910    0.56890    1.000
    H40      H        0.66050    0.83760    0.52410    1.000
    H41      H        0.65630    0.85080    0.36750    1.000
    C72      C        0.62890    0.82390    0.31170    1.000
    C73      C        0.73200    0.75550    0.21160    1.000
    H42      H        0.83010    0.73550    0.19960    1.000
    H43      H        0.91400    0.84300    0.30640    1.000
    C74      C        0.84940    0.92950    0.29540    1.000
    C75      C        0.72090    0.97030    0.36590    1.000
    H44      H        0.70050    0.90910    0.42230    1.000
    H45      H        0.62580    0.79210    0.46830    1.000
    C76      C        0.58980    0.73950    0.52910    1.000
    C77      C        0.67510    0.62460    0.49190    1.000
    H46      H        0.77080    0.60140    0.41000    1.000
    H47      H        0.89220    0.81000    0.22080    1.000
    C78      C        0.95600    0.77340    0.12530    1.000
    C79      C        0.04780    0.66230    0.09940    1.000
    H48      H        0.04570    0.62290    0.17590    1.000
    H49      H        0.63510    0.18990    0.32560    1.000
    C80      C        0.69450    0.09480    0.32420    1.000
    C81      C        0.80900    0.03710    0.22850    1.000
    H50      H        0.82800    0.09340    0.16390    1.000
    H51      H        0.89990    0.29330    0.24470    1.000
    C82      C        0.88440    0.38340    0.25630    1.000
    C83      C        0.75880    0.46360    0.32520    1.000
    H52      H        0.68950    0.42870    0.36040    1.000
    H53      H        0.74010    0.17270    0.36790    1.000
    C84      C        0.72250    0.19950    0.45460    1.000
    C85      C        0.64730    0.31420    0.49440    1.000
    H54      H        0.61680    0.36260    0.43250    1.000
    H55      H        0.57370    0.27620    0.25560    1.000
    C86      C        0.49050    0.29450    0.34740    1.000
    C87      C        0.46280    0.38080    0.41600    1.000
    H56      H        0.52880    0.41840    0.37200    1.000
    H57      H        0.13220    0.64290    0.86530    1.000
    C88      C        0.07880    0.67160    0.96150    1.000
    C89      C        0.04230    0.77980    0.99390    1.000
    H58      H        0.07020    0.82430    0.91980    1.000
    H59      H        0.07430    0.48050    0.39280    1.000
    C90      C        0.98200    0.51730    0.48130    1.000
    H60      H        0.87920    0.57000    0.55600    1.000
    H61      H        0.83150    0.82910    0.56880    1.000
    C91      C        0.72880    0.88840    0.58200    1.000
    H62      H        0.63130    0.92680    0.58550    1.000
    H63      H        0.57730    0.84790    0.34080    1.000
    C92      C        0.65570    0.78750    0.25360    1.000
    H64      H        0.75230    0.73200    0.17080    1.000
    H65      H        0.88910    0.93340    0.26270    1.000
    C93      C        0.77770    0.97820    0.31550    1.000
    H66      H        0.67070    0.00310    0.38270    1.000
    H67      H        0.54480    0.77550    0.56010    1.000
    C94      C        0.60630    0.67640    0.53860    1.000
    H68      H        0.68800    0.58140    0.49640    1.000
    H69      H        0.93090    0.81180    0.11320    1.000
    C95      C        0.01570    0.71860    0.07900    1.000
    H70      H        0.08720    0.62350    0.06860    1.000
    H71      H        0.65870    0.09600    0.36530    1.000
    C96      C        0.76010    0.03660    0.28910    1.000
    H72      H        0.85360    0.99810    0.20230    1.000
    H73      H        0.93470    0.37090    0.22990    1.000
    C97      C        0.83140    0.44810    0.28590    1.000
    H74      H        0.72170    0.50710    0.34680    1.000
    H75      H        0.75080    0.15720    0.45890    1.000
    C98      C        0.68790    0.25220    0.50230    1.000
    H76      H        0.62330    0.35110    0.52600    1.000
    H77      H        0.48130    0.26250    0.34020    1.000
    C99      C        0.44910    0.33300    0.40640    1.000
    H78      H        0.43340    0.40910    0.45630    1.000
    H79      H        0.08050    0.63220    0.97130    1.000
    C100     C        0.04560    0.72290    0.01080    1.000
    H80      H        0.01880    0.81590    0.02630    1.000
    C101     C        0.71040    0.94900    0.61670    1.000
    C102     C        0.60670    0.78120    0.23880    1.000
    C103     C        0.85120    0.49830    0.27510    1.000
    C104     C        0.69020    0.24230    0.56180    1.000
    C105     C        0.64220    0.98710    0.66930    1.000
    C106     C        0.76190    0.96780    0.59530    1.000
    C107     C        0.62610    0.76190    0.17630    1.000
    C108     C        0.53810    0.79460    0.28820    1.000
    C109     C        0.91820    0.48770    0.26290    1.000
    C110     C        0.79840    0.56090    0.27910    1.000
    C111     C        0.63030    0.28450    0.61920    1.000
    C112     C        0.74990    0.19010    0.56310    1.000
    C113     C        0.62470    0.04530    0.69860    1.000
    H81      H        0.60690    0.97400    0.68580    1.000
    H82      H        0.81010    0.94110    0.56020    1.000
    C114     C        0.74300    0.02590    0.62510    1.000
    C115     C        0.57690    0.75630    0.16600    1.000
    H83      H        0.67260    0.75260    0.14140    1.000
    H84      H        0.52280    0.81000    0.33060    1.000
    C116     C        0.49050    0.78580    0.27650    1.000
    C117     C        0.93150    0.53830    0.25760    1.000
    H85      H        0.95570    0.44530    0.25820    1.000
    H86      H        0.75250    0.56940    0.28570    1.000
    C118     C        0.81300    0.61030    0.27350    1.000
    C119     C        0.63080    0.27200    0.67550    1.000
    H87      H        0.58940    0.32150    0.61990    1.000
    H88      H        0.79190    0.16120    0.52430    1.000
    C120     C        0.74870    0.18010    0.61940    1.000
    N21      N        0.67550    0.06340    0.67540    1.000
    H89      H        0.57730    0.07200    0.73460    1.000
    H90      H        0.77810    0.03920    0.60980    1.000
    N22      N        0.51190    0.76760    0.21460    1.000
    H91      H        0.58970    0.74440    0.12360    1.000
    H92      H        0.44480    0.79240    0.31070    1.000
    N23      N        0.87910    0.59880    0.26300    1.000
    H93      H        0.97740    0.53030    0.25010    1.000
    H94      H        0.77660    0.65290    0.27700    1.000
    N24      N        0.68960    0.22020    0.67450    1.000
    H95      H        0.58960    0.30010    0.71500    1.000
    H96      H        0.79000    0.14450    0.61950    1.000
    Tb4      Tb       0.63533    0.15515    0.80260    1.000
    O25      O        0.74450    0.12790    0.79950    1.000
    O26      O        0.70310    0.03920    0.77920    1.000
    O27      O        0.61450    0.13120    0.90460    1.000
    O28      O        0.54560    0.12590    0.83870    1.000
    O29      O        0.59470    0.25030    0.86960    1.000
    O30      O        0.65740    0.12000    0.70210    1.000
    O31      O        0.53350    0.23940    0.79660    1.000
    O32      O        0.68860    0.20940    0.72900    1.000
    N25      N        0.78430    0.15570    0.77500    1.000
    N26      N        0.76840    0.00100    0.77570    1.000
    N27      N        0.62960    0.15210    0.94190    1.000
    N28      N        0.53320    0.09110    0.88270    1.000
    N29      N        0.55090    0.30930    0.86570    1.000
    C121     C        0.76510    0.20960    0.80910    1.000
    C122     C        0.84410    0.12950    0.71520    1.000
    C123     C        0.77030    0.98140    0.82770    1.000
    C124     C        0.83070    0.98460    0.71950    1.000
    C125     C        0.70100    0.11990    0.92940    1.000
    C126     C        0.57700    0.20410    0.98900    1.000
    C127     C        0.57250    0.02640    0.86570    1.000
    C128     C        0.48150    0.12180    0.94310    1.000
    C129     C        0.58080    0.34010    0.82360    1.000
    C130     C        0.47740    0.33590    0.90160    1.000
    H97      H        0.72280    0.22760    0.85070    1.000
    C131     C        0.80650    0.23900    0.78400    1.000
    C132     C        0.88660    0.15750    0.68840    1.000
    H98      H        0.85670    0.09160    0.69160    1.000
    H99      H        0.72580    0.99180    0.86600    1.000
    C133     C        0.83680    0.94590    0.82600    1.000
    C134     C        0.89890    0.94750    0.71510    1.000
    H100     H        0.82790    0.99840    0.68290    1.000
    H101     H        0.73790    0.08340    0.89530    1.000
    C135     C        0.71880    0.14070    0.96630    1.000
    C136     C        0.59470    0.22560    0.02620    1.000
    H102     H        0.52800    0.22620    0.99700    1.000
    H103     H        0.60880    0.00590    0.82230    1.000
    C137     C        0.56040    0.98900    0.91160    1.000
    C138     C        0.46780    0.08610    0.99020    1.000
    H104     H        0.45420    0.16760    0.95400    1.000
    H105     H        0.63250    0.32260    0.80120    1.000
    C139     C        0.53580    0.39670    0.81360    1.000
    C140     C        0.43000    0.39360    0.89390    1.000
    H106     H        0.45780    0.31470    0.93290    1.000
    H107     H        0.79270    0.27680    0.80870    1.000
    C141     C        0.86860    0.21360    0.72260    1.000
    H108     H        0.92830    0.13880    0.64660    1.000
    H109     H        0.83770    0.93270    0.86330    1.000
    C142     C        0.90260    0.92950    0.76950    1.000
    H110     H        0.94280    0.93440    0.67510    1.000
    H111     H        0.76770    0.11730    0.95850    1.000
    C143     C        0.66550    0.19590    0.01520    1.000
    H112     H        0.55670    0.26190    0.06030    1.000
    H113     H        0.58820    0.94330    0.89940    1.000
    C144     C        0.50750    0.01900    0.97530    1.000
    H114     H        0.43070    0.10800    0.03310    1.000
    H115     H        0.55700    0.41800    0.78360    1.000
    C145     C        0.45950    0.42390    0.84650    1.000
    H116     H        0.37820    0.41260    0.92040    1.000
    C146     C        0.91580    0.24260    0.69410    1.000
    C147     C        0.97390    0.89570    0.76680    1.000
    C148     C        0.68720    0.21950    0.05130    1.000
    C149     C        0.41210    0.47850    0.82900    1.000
    C150     C        0.89460    0.30260    0.72210    1.000
    C151     C        0.98370    0.21000    0.63900    1.000
    C152     C        0.98290    0.91090    0.81440    1.000
    C153     C        0.03760    0.84940    0.71190    1.000
    C154     C        0.75550    0.18010    0.04680    1.000
    C155     C        0.64220    0.28090    0.08990    1.000
    C156     C        0.34150    0.52520    0.87370    1.000
    C157     C        0.43400    0.48100    0.76520    1.000
    C158     C        0.94140    0.32660    0.69680    1.000
    H117     H        0.84740    0.32740    0.75910    1.000
    H118     H        0.99880    0.16950    0.61820    1.000
    C159     C        0.02990    0.23380    0.61320    1.000
    C160     C        0.05140    0.88360    0.80680    1.000
    H119     H        0.94100    0.94060    0.85270    1.000
    H120     H        0.03340    0.83640    0.67900    1.000
    C161     C        0.10650    0.82280    0.70580    1.000
    C162     C        0.77820    0.20300    0.07780    1.000
    H121     H        0.78670    0.13720    0.02230    1.000
    H122     H        0.59440    0.30800    0.09570    1.000
    C163     C        0.66640    0.30310    0.12010    1.000
    C164     C        0.29520    0.57190    0.85490    1.000
    H123     H        0.32440    0.52550    0.91780    1.000
    H124     H        0.48220    0.44960    0.73300    1.000
    C165     C        0.38730    0.52820    0.74780    1.000
    N30      N        0.00800    0.29250    0.64340    1.000
    H125     H        0.92670    0.36730    0.71690    1.000
    H126     H        0.07630    0.21020    0.57520    1.000
    N31      N        0.11190    0.84170    0.75270    1.000
    H127     H        0.05640    0.89430    0.84020    1.000
    H128     H        0.14940    0.79160    0.66880    1.000
    N32      N        0.73390    0.26390    0.11280    1.000
    H129     H        0.82480    0.17600    0.07440    1.000
    H130     H        0.63570    0.34540    0.14560    1.000
    N33      N        0.31890    0.57260    0.79220    1.000
    H131     H        0.24670    0.60370    0.88620    1.000
    H132     H        0.40370    0.52930    0.70400    1.000
    O33      O        0.05400    0.31480    0.62020    1.000
    O34      O        0.17870    0.81890    0.74460    1.000
    O35      O        0.75830    0.28540    0.13950    1.000
    O36      O        0.27320    0.61560    0.77540    1.000
    Tb5      Tb       0.14732    0.28605    0.64573    1.000
    Tb6      Tb       0.25693    0.71859    0.75826    1.000
    O37      O        0.11620    0.38930    0.62190    1.000
    O38      O        0.21780    0.26660    0.53070    1.000
    O39      O        0.20590    0.20890    0.69560    1.000
    O40      O        0.17530    0.18360    0.60660    1.000
    O41      O        0.25150    0.29120    0.62040    1.000
    O42      O        0.05070    0.28030    0.73210    1.000
    O43      O        0.10990    0.35250    0.73870    1.000
    O44      O        0.28250    0.79600    0.77960    1.000
    O45      O        0.22830    0.68820    0.68930    1.000
    O46      O        0.33490    0.72350    0.65500    1.000
    O47      O        0.38060    0.65270    0.73810    1.000
    O48      O        0.13470    0.73980    0.82460    1.000
    N34      N        0.08450    0.41800    0.58800    1.000
    N35      N        0.23580    0.21750    0.49210    1.000
    N36      N        0.25060    0.20830    0.71290    1.000
    N37      N        0.19100    0.13080    0.63070    1.000
    N38      N        0.29560    0.30240    0.56850    1.000
    N39      N        0.03180    0.28220    0.79350    1.000
    N40      N        0.26970    0.85020    0.75800    1.000
    N41      N        0.20830    0.64430    0.69660    1.000
    N42      N        0.32580    0.73070    0.60450    1.000
    N43      N        0.43810    0.65520    0.69180    1.000
    N44      N        0.89490    0.26580    0.11520    1.000
    C166     C        0.01120    0.45790    0.61810    1.000
    C167     C        0.12610    0.40700    0.52400    1.000
    C168     C        0.18720    0.22150    0.47660    1.000
    C169     C        0.30420    0.16360    0.46770    1.000
    C170     C        0.32420    0.17430    0.67220    1.000
    C171     C        0.22150    0.24240    0.77140    1.000
    C172     C        0.13580    0.12400    0.67840    1.000
    C173     C        0.26120    0.08510    0.60990    1.000
    C174     C        0.36180    0.25050    0.52490    1.000
    C175     C        0.27620    0.36360    0.56010    1.000
    C176     C        0.06710    0.22770    0.81090    1.000
    C177     C        0.97610    0.33830    0.83730    1.000
    C178     C        0.31980    0.84930    0.69930    1.000
    C179     C        0.20630    0.90610    0.79450    1.000
    C180     C        0.13620    0.66270    0.73480    1.000
    C181     C        0.26050    0.58280    0.66650    1.000
    C182     C        0.28430    0.79130    0.59920    1.000
    C183     C        0.35720    0.67930    0.56100    1.000
    C184     C        0.45340    0.69830    0.70280    1.000
    C185     C        0.48060    0.61390    0.63400    1.000
    C186     C        0.89110    0.32190    0.10130    1.000
    C187     C        0.92750    0.21490    0.06930    1.000
    H133     H        0.98250    0.46330    0.66290    1.000
    C188     C        0.97750    0.49070    0.58490    1.000
    C189     C        0.09200    0.43890    0.48930    1.000
    H134     H        0.17780    0.37790    0.50290    1.000
    H135     H        0.14170    0.26090    0.49050    1.000
    C190     C        0.20360    0.16840    0.44050    1.000
    C191     C        0.32130    0.11090    0.43110    1.000
    H136     H        0.33950    0.16240    0.47590    1.000
    H137     H        0.34370    0.14920    0.63250    1.000
    C192     C        0.37110    0.17610    0.68830    1.000
    C193     C        0.26800    0.24450    0.78840    1.000
    H138     H        0.16990    0.26450    0.80040    1.000
    H139     H        0.08600    0.15700    0.69360    1.000
    C194     C        0.15060    0.07050    0.70460    1.000
    C195     C        0.27910    0.02970    0.63410    1.000
    H140     H        0.29950    0.09090    0.57770    1.000
    H141     H        0.37420    0.20790    0.53170    1.000
    C196     C        0.41020    0.26050    0.47090    1.000
    C197     C        0.32490    0.37540    0.50810    1.000
    H142     H        0.22920    0.39860    0.59000    1.000
    H143     H        0.10780    0.19000    0.77920    1.000
    C198     C        0.04400    0.22660    0.87470    1.000
    C199     C        0.95220    0.33770    0.90060    1.000
    H144     H        0.95430    0.37710    0.82410    1.000
    H145     H        0.36490    0.81010    0.67440    1.000
    C200     C        0.30550    0.90520    0.67580    1.000
    C201     C        0.19100    0.96290    0.77150    1.000
    H146     H        0.17200    0.90660    0.83610    1.000
    H147     H        0.10010    0.70670    0.75530    1.000
    C202     C        0.11560    0.61660    0.74370    1.000
    C203     C        0.24120    0.53640    0.67480    1.000
    H148     H        0.31050    0.57130    0.63960    1.000
    H149     H        0.25990    0.82730    0.63210    1.000
    C204     C        0.27750    0.80050    0.54540    1.000
    C205     C        0.35270    0.68580    0.50560    1.000
    H150     H        0.38320    0.63740    0.56750    1.000
    H151     H        0.42630    0.72380    0.74440    1.000
    C206     C        0.50950    0.70550    0.65260    1.000
    C207     C        0.53720    0.61920    0.58400    1.000
    H152     H        0.47120    0.58160    0.62800    1.000
    H153     H        0.86780    0.35710    0.13470    1.000
    C208     C        0.92120    0.32840    0.03850    1.000
    C209     C        0.95770    0.22020    0.00610    1.000
    H154     H        0.92980    0.17570    0.08020    1.000
    H155     H        0.92570    0.51950    0.60720    1.000
    C210     C        0.01800    0.48270    0.51870    1.000
    H156     H        0.12080    0.43000    0.44400    1.000
    H157     H        0.16850    0.17090    0.43120    1.000
    C211     C        0.27120    0.11160    0.41800    1.000
    H158     H        0.36870    0.07320    0.41450    1.000
    H159     H        0.42270    0.15210    0.65920    1.000
    C212     C        0.34430    0.21250    0.74640    1.000
    H160     H        0.24770    0.26800    0.82920    1.000
    H161     H        0.11090    0.06660    0.73730    1.000
    C213     C        0.22230    0.02180    0.68450    1.000
    H162     H        0.32930    0.99690    0.61730    1.000
    H163     H        0.45520    0.22450    0.43990    1.000
    C214     C        0.39370    0.32360    0.46140    1.000
    H164     H        0.31200    0.41860    0.50360    1.000
    H165     H        0.06910    0.18820    0.88680    1.000
    C215     C        0.98430    0.28140    0.92100    1.000
    H166     H        0.91280    0.37650    0.93140    1.000
    H167     H        0.34130    0.90400    0.63470    1.000
    C216     C        0.23990    0.96340    0.71090    1.000
    H168     H        0.14640    0.00190    0.79770    1.000
    H169     H        0.06530    0.62910    0.77010    1.000
    C217     C        0.16860    0.55190    0.71410    1.000
    H170     H        0.27830    0.49290    0.65320    1.000
    H171     H        0.24920    0.84280    0.54110    1.000
    C218     C        0.31210    0.74780    0.49770    1.000
    H172     H        0.37670    0.64890    0.47400    1.000
    H173     H        0.51870    0.73750    0.65980    1.000
    C219     C        0.55090    0.66700    0.59360    1.000
    H174     H        0.56660    0.59090    0.54370    1.000
    H175     H        0.91950    0.36780    0.02870    1.000
    C220     C        0.95440    0.27710    0.98920    1.000
    H176     H        0.98120    0.18410    0.97370    1.000
    C221     C        0.28960    0.05100    0.38330    1.000
    C222     C        0.39330    0.21880    0.76120    1.000
    C223     C        0.14880    0.50170    0.72490    1.000
    C224     C        0.30980    0.75770    0.43820    1.000
    C225     C        0.35780    0.01290    0.33070    1.000
    C226     C        0.23810    0.03220    0.40470    1.000
    C227     C        0.37390    0.23810    0.82370    1.000
    C228     C        0.46190    0.20540    0.71180    1.000
    C229     C        0.08180    0.51230    0.73710    1.000
    C230     C        0.20160    0.43910    0.72090    1.000
    C231     C        0.36970    0.71550    0.38080    1.000
    C232     C        0.25010    0.80990    0.43690    1.000
    C233     C        0.37530    0.95470    0.30140    1.000
    H177     H        0.39310    0.02600    0.31420    1.000
    H178     H        0.18990    0.05890    0.43980    1.000
    C234     C        0.25700    0.97410    0.37490    1.000
    C235     C        0.42310    0.24370    0.83400    1.000
    H179     H        0.32740    0.24740    0.85860    1.000
    H180     H        0.47720    0.19000    0.66940    1.000
    C236     C        0.50950    0.21420    0.72350    1.000
    C237     C        0.06850    0.46170    0.74240    1.000
    H181     H        0.04430    0.55470    0.74180    1.000
    H182     H        0.24750    0.43060    0.71430    1.000
    C238     C        0.18700    0.38970    0.72650    1.000
    C239     C        0.36920    0.72800    0.32450    1.000
    H183     H        0.41060    0.67850    0.38010    1.000
    H184     H        0.20810    0.83880    0.47570    1.000
    C240     C        0.25130    0.81990    0.38060    1.000
    N45      N        0.32450    0.93660    0.32460    1.000
    H185     H        0.42270    0.92800    0.26540    1.000
    H186     H        0.22190    0.96080    0.39020    1.000
    N46      N        0.48810    0.23240    0.78540    1.000
    H187     H        0.41030    0.25560    0.87640    1.000
    H188     H        0.55520    0.20760    0.68930    1.000
    N47      N        0.12090    0.40120    0.73700    1.000
    H189     H        0.02260    0.46970    0.74990    1.000
    H190     H        0.22340    0.34710    0.72300    1.000
    N48      N        0.31040    0.77980    0.32550    1.000
    H191     H        0.41040    0.69990    0.28500    1.000
    H192     H        0.21000    0.85550    0.38050    1.000
