# CIF file generated by openbabel 3.1.0, see https://openbabel.org
data_I
_chemical_name_common 'image0'
_cell_length_a 8.8305
_cell_length_b 19.9787
_cell_length_c 25.7425
_cell_angle_alpha 90
_cell_angle_beta 96.821
_cell_angle_gamma 90
_space_group_name_H-M_alt 'P 1'
_space_group_name_Hall 'P 1'
loop_
    _symmetry_equiv_pos_as_xyz
    x,y,z
loop_
    _atom_site_label
    _atom_site_type_symbol
    _atom_site_fract_x
    _atom_site_fract_y
    _atom_site_fract_z
    _atom_site_occupancy
    C1       C        0.38720    0.01310    0.56744    1.000
    H1       H        0.38150    0.98480    0.53860    1.000
    C2       C        0.43330    0.98630    0.61618    1.000
    H2       H        0.45990    0.94140    0.61930    1.000
    C3       C        0.44010    0.02574    0.66004    1.000
    C4       C        0.40160    0.09270    0.65203    1.000
    H3       H        0.40430    0.12170    0.68040    1.000
    C5       C        0.36020    0.11560    0.60279    1.000
    H4       H        0.33670    0.16080    0.59860    1.000
    C6       C        0.48480    0.99872    0.71358    1.000
    C7       C        0.45600    0.93260    0.72500    1.000
    H5       H        0.41190    0.90450    0.69860    1.000
    C8       C        0.49160    0.90750    0.77469    1.000
    H6       H        0.47300    0.86270    0.78140    1.000
    C9       C        0.55510    0.94870    0.81477    1.000
    C10      C        0.58490    0.01460    0.80372    1.000
    H7       H        0.62910    0.04260    0.83010    1.000
    C11      C        0.54950    0.03920    0.75368    1.000
    H8       H        0.56960    0.08380    0.74680    1.000
    C12      C        0.46860    0.87910    0.88302    1.000
    C13      C        0.31810    0.89810    0.87699    1.000
    H9       H        0.28940    0.93870    0.86100    1.000
    C14      C        0.20950    0.85710    0.89461    1.000
    H10      H        0.10760    0.86990    0.88960    1.000
    C15      C        0.24900    0.79703    0.91963    1.000
    C16      C        0.39890    0.77850    0.92414    1.000
    H11      H        0.42740    0.73770    0.93960    1.000
    C17      C        0.51000    0.81870    0.90636    1.000
    H12      H        0.61140    0.80500    0.91010    1.000
    C18      C        0.13140    0.75600    0.94129    1.000
    C19      C        0.00600    0.78570    0.95954    1.000
    H13      H        0.99420    0.83200    0.95800    1.000
    C20      C        0.89920    0.74680    0.97990    1.000
    H14      H        0.81630    0.76790    0.99200    1.000
    C21      C        0.02970    0.65170    0.96547    1.000
    H15      H        0.03840    0.60540    0.96730    1.000
    C22      C        0.14210    0.68750    0.94469    1.000
    H16      H        0.22440    0.66530    0.93310    1.000
    C23      C        0.70020    0.94580    0.90348    1.000
    C24      C        0.67930    0.94950    0.95553    1.000
    H17      H        0.58530    0.93810    0.96580    1.000
    C25      C        0.79610    0.97010    0.99281    1.000
    H18      H        0.77880    0.97120    0.02770    1.000
    C26      C        0.93740    0.98909    0.97995    1.000
    C27      C        0.95400    0.98679    0.92698    1.000
    H19      H        0.04590    0.00040    0.91610    1.000
    C28      C        0.83870    0.96504    0.88997    1.000
    H20      H        0.85570    0.96340    0.85500    1.000
    C29      C        0.50550    0.19790    0.45234    1.000
    C30      C        0.63310    0.23572    0.43348    1.000
    C31      C        0.63230    0.30480    0.43077    1.000
    H21      H        0.55290    0.32840    0.44300    1.000
    C32      C        0.74660    0.33950    0.41032    1.000
    H22      H        0.74180    0.38600    0.40860    1.000
    C33      C        0.86850    0.30657    0.39224    1.000
    C34      C        0.87510    0.23670    0.39714    1.000
    H23      H        0.95760    0.21330    0.38690    1.000
    C35      C        0.75940    0.20270    0.41714    1.000
    H24      H        0.76520    0.15630    0.41990    1.000
    C36      C        0.98640    0.34299    0.36746    1.000
    C37      C        0.13790    0.34500    0.38874    1.000
    H25      H        0.16860    0.32200    0.41960    1.000
    C38      C        0.24320    0.38040    0.36486    1.000
    H26      H        0.34390    0.38240    0.38020    1.000
    C39      C        0.20060    0.41340    0.31808    1.000
    H27      H        0.27330    0.43700    0.30220    1.000
    C40      C        0.05160    0.41170    0.29479    1.000
    C41      C        0.94600    0.37682    0.32044    1.000
    H28      H        0.84460    0.37600    0.30570    1.000
    C42      C        0.00600    0.44500    0.24377    1.000
    C43      C        0.06710    0.50490    0.23170    1.000
    H29      H        0.14110    0.52450    0.25560    1.000
    C44      C        0.02230    0.53720    0.18482    1.000
    H30      H        0.06540    0.57830    0.17800    1.000
    C45      C        0.91430    0.50910    0.14814    1.000
    C46      C        0.85510    0.44790    0.15920    1.000
    H31      H        0.78430    0.42740    0.13460    1.000
    C47      C        0.89960    0.41600    0.20669    1.000
    H32      H        0.85730    0.37480    0.21360    1.000
    C48      C        0.85720    0.54640    0.09901    1.000
    Cd1      Cd       0.27435    0.12089    0.47925    1.000
    N1       N        0.58250    0.92218    0.86631    1.000
    N2       N        0.35080    0.07679    0.55950    1.000
    N3       N        0.90870    0.68057    0.98317    1.000
    O1       O        0.39130    0.22798    0.46359    1.000
    O2       O        0.51730    0.13634    0.45681    1.000
    O3       O        0.78550    0.51613    0.06194    1.000
    O4       O        0.87890    0.60749    0.09820    1.000
    C49      C        0.61280    0.51310    0.93256    1.000
    H33      H        0.61850    0.48480    0.96140    1.000
    C50      C        0.56670    0.48630    0.88382    1.000
    H34      H        0.54010    0.44140    0.88070    1.000
    C51      C        0.55990    0.52574    0.83996    1.000
    C52      C        0.59840    0.59270    0.84797    1.000
    H35      H        0.59570    0.62170    0.81960    1.000
    C53      C        0.63980    0.61560    0.89721    1.000
    H36      H        0.66330    0.66080    0.90140    1.000
    C54      C        0.51520    0.49872    0.78642    1.000
    C55      C        0.54400    0.43260    0.77500    1.000
    H37      H        0.58810    0.40450    0.80140    1.000
    C56      C        0.50840    0.40750    0.72531    1.000
    H38      H        0.52700    0.36270    0.71860    1.000
    C57      C        0.44490    0.44870    0.68523    1.000
    C58      C        0.41510    0.51460    0.69628    1.000
    H39      H        0.37090    0.54260    0.66990    1.000
    C59      C        0.45050    0.53920    0.74632    1.000
    H40      H        0.43040    0.58380    0.75320    1.000
    C60      C        0.53140    0.37910    0.61698    1.000
    C61      C        0.68190    0.39810    0.62301    1.000
    H41      H        0.71060    0.43870    0.63900    1.000
    C62      C        0.79050    0.35710    0.60539    1.000
    H42      H        0.89240    0.36990    0.61040    1.000
    C63      C        0.75100    0.29703    0.58037    1.000
    C64      C        0.60110    0.27850    0.57586    1.000
    H43      H        0.57260    0.23770    0.56040    1.000
    C65      C        0.49000    0.31870    0.59364    1.000
    H44      H        0.38860    0.30500    0.58990    1.000
    C66      C        0.86860    0.25600    0.55871    1.000
    C67      C        0.99400    0.28570    0.54046    1.000
    H45      H        0.00580    0.33200    0.54200    1.000
    C68      C        0.10080    0.24680    0.52010    1.000
    H46      H        0.18370    0.26790    0.50800    1.000
    C69      C        0.97030    0.15170    0.53453    1.000
    H47      H        0.96160    0.10540    0.53270    1.000
    C70      C        0.85790    0.18750    0.55531    1.000
    H48      H        0.77560    0.16530    0.56690    1.000
    C71      C        0.29980    0.44580    0.59652    1.000
    C72      C        0.32070    0.44950    0.54447    1.000
    H49      H        0.41470    0.43810    0.53420    1.000
    C73      C        0.20390    0.47010    0.50719    1.000
    H50      H        0.22120    0.47120    0.47230    1.000
    C74      C        0.06260    0.48909    0.52005    1.000
    C75      C        0.04600    0.48679    0.57302    1.000
    H51      H        0.95410    0.50040    0.58390    1.000
    C76      C        0.16130    0.46504    0.61003    1.000
    H52      H        0.14430    0.46340    0.64500    1.000
    C77      C        0.49450    0.69790    0.04766    1.000
    C78      C        0.36690    0.73572    0.06652    1.000
    C79      C        0.36770    0.80480    0.06923    1.000
    H53      H        0.44710    0.82840    0.05700    1.000
    C80      C        0.25340    0.83950    0.08968    1.000
    H54      H        0.25820    0.88600    0.09140    1.000
    C81      C        0.13150    0.80657    0.10776    1.000
    C82      C        0.12490    0.73670    0.10286    1.000
    H55      H        0.04240    0.71330    0.11310    1.000
    C83      C        0.24060    0.70270    0.08286    1.000
    H56      H        0.23480    0.65630    0.08010    1.000
    C84      C        0.01360    0.84299    0.13254    1.000
    C85      C        0.86210    0.84500    0.11126    1.000
    H57      H        0.83140    0.82200    0.08040    1.000
    C86      C        0.75680    0.88040    0.13514    1.000
    H58      H        0.65610    0.88240    0.11980    1.000
    C87      C        0.79940    0.91340    0.18192    1.000
    H59      H        0.72670    0.93700    0.19780    1.000
    C88      C        0.94840    0.91170    0.20521    1.000
    C89      C        0.05400    0.87682    0.17956    1.000
    H60      H        0.15540    0.87600    0.19430    1.000
    C90      C        0.99400    0.94500    0.25623    1.000
    C91      C        0.93290    0.00490    0.26830    1.000
    H61      H        0.85890    0.02450    0.24440    1.000
    C92      C        0.97770    0.03720    0.31518    1.000
    H62      H        0.93460    0.07830    0.32200    1.000
    C93      C        0.08570    0.00910    0.35186    1.000
    C94      C        0.14490    0.94790    0.34080    1.000
    H63      H        0.21570    0.92740    0.36540    1.000
    C95      C        0.10040    0.91600    0.29331    1.000
    H64      H        0.14270    0.87480    0.28640    1.000
    C96      C        0.14280    0.04640    0.40099    1.000
    Cd2      Cd       0.72565    0.62089    0.02075    1.000
    N4       N        0.41750    0.42218    0.63369    1.000
    N5       N        0.64920    0.57679    0.94050    1.000
    N6       N        0.09130    0.18057    0.51683    1.000
    O5       O        0.60870    0.72798    0.03641    1.000
    O6       O        0.48270    0.63634    0.04319    1.000
    O7       O        0.21450    0.01613    0.43806    1.000
    O8       O        0.12110    0.10749    0.40180    1.000
    C97      C        0.61280    0.98690    0.43256    1.000
    H65      H        0.61850    0.01520    0.46140    1.000
    C98      C        0.56670    0.01370    0.38382    1.000
    H66      H        0.54010    0.05860    0.38070    1.000
    C99      C        0.55990    0.97426    0.33996    1.000
    C100     C        0.59840    0.90730    0.34797    1.000
    H67      H        0.59570    0.87830    0.31960    1.000
    C101     C        0.63980    0.88440    0.39721    1.000
    H68      H        0.66330    0.83920    0.40140    1.000
    C102     C        0.51520    0.00128    0.28642    1.000
    C103     C        0.54400    0.06740    0.27500    1.000
    H69      H        0.58810    0.09550    0.30140    1.000
    C104     C        0.50840    0.09250    0.22531    1.000
    H70      H        0.52700    0.13730    0.21860    1.000
    C105     C        0.44490    0.05130    0.18523    1.000
    C106     C        0.41510    0.98540    0.19628    1.000
    H71      H        0.37090    0.95740    0.16990    1.000
    C107     C        0.45050    0.96080    0.24632    1.000
    H72      H        0.43040    0.91620    0.25320    1.000
    C108     C        0.53140    0.12090    0.11698    1.000
    C109     C        0.68190    0.10190    0.12301    1.000
    H73      H        0.71060    0.06130    0.13900    1.000
    C110     C        0.79050    0.14290    0.10539    1.000
    H74      H        0.89240    0.13010    0.11040    1.000
    C111     C        0.75100    0.20297    0.08037    1.000
    C112     C        0.60110    0.22150    0.07586    1.000
    H75      H        0.57260    0.26230    0.06040    1.000
    C113     C        0.49000    0.18130    0.09364    1.000
    H76      H        0.38860    0.19500    0.08990    1.000
    C114     C        0.86860    0.24400    0.05871    1.000
    C115     C        0.99400    0.21430    0.04046    1.000
    H77      H        0.00580    0.16800    0.04200    1.000
    C116     C        0.10080    0.25320    0.02010    1.000
    H78      H        0.18370    0.23210    0.00800    1.000
    C117     C        0.97030    0.34830    0.03453    1.000
    H79      H        0.96160    0.39460    0.03270    1.000
    C118     C        0.85790    0.31250    0.05531    1.000
    H80      H        0.77560    0.33470    0.06690    1.000
    C119     C        0.29980    0.05420    0.09652    1.000
    C120     C        0.32070    0.05050    0.04447    1.000
    H81      H        0.41470    0.06190    0.03420    1.000
    C121     C        0.20390    0.02990    0.00719    1.000
    H82      H        0.22120    0.02880    0.97230    1.000
    C122     C        0.06260    0.01091    0.02005    1.000
    C123     C        0.04600    0.01321    0.07302    1.000
    H83      H        0.95410    0.99960    0.08390    1.000
    C124     C        0.16130    0.03496    0.11003    1.000
    H84      H        0.14430    0.03660    0.14500    1.000
    C125     C        0.49450    0.80210    0.54766    1.000
    C126     C        0.36690    0.76428    0.56652    1.000
    C127     C        0.36770    0.69520    0.56923    1.000
    H85      H        0.44710    0.67160    0.55700    1.000
    C128     C        0.25340    0.66050    0.58968    1.000
    H86      H        0.25820    0.61400    0.59140    1.000
    C129     C        0.13150    0.69343    0.60776    1.000
    C130     C        0.12490    0.76330    0.60286    1.000
    H87      H        0.04240    0.78670    0.61310    1.000
    C131     C        0.24060    0.79730    0.58286    1.000
    H88      H        0.23480    0.84370    0.58010    1.000
    C132     C        0.01360    0.65701    0.63254    1.000
    C133     C        0.86210    0.65500    0.61126    1.000
    H89      H        0.83140    0.67800    0.58040    1.000
    C134     C        0.75680    0.61960    0.63514    1.000
    H90      H        0.65610    0.61760    0.61980    1.000
    C135     C        0.79940    0.58660    0.68192    1.000
    H91      H        0.72670    0.56300    0.69780    1.000
    C136     C        0.94840    0.58830    0.70521    1.000
    C137     C        0.05400    0.62318    0.67956    1.000
    H92      H        0.15540    0.62400    0.69430    1.000
    C138     C        0.99400    0.55500    0.75623    1.000
    C139     C        0.93290    0.49510    0.76830    1.000
    H93      H        0.85890    0.47550    0.74440    1.000
    C140     C        0.97770    0.46280    0.81518    1.000
    H94      H        0.93460    0.42170    0.82200    1.000
    C141     C        0.08570    0.49090    0.85186    1.000
    C142     C        0.14490    0.55210    0.84080    1.000
    H95      H        0.21570    0.57260    0.86540    1.000
    C143     C        0.10040    0.58400    0.79331    1.000
    H96      H        0.14270    0.62520    0.78640    1.000
    C144     C        0.14280    0.45360    0.90099    1.000
    Cd3      Cd       0.72565    0.87911    0.52075    1.000
    N7       N        0.41750    0.07782    0.13369    1.000
    N8       N        0.64920    0.92321    0.44050    1.000
    N9       N        0.09130    0.31943    0.01683    1.000
    O9       O        0.60870    0.77202    0.53641    1.000
    O10      O        0.48270    0.86366    0.54319    1.000
    O11      O        0.21450    0.48387    0.93806    1.000
    O12      O        0.12110    0.39251    0.90180    1.000
    C145     C        0.38720    0.48690    0.06744    1.000
    H97      H        0.38150    0.51520    0.03860    1.000
    C146     C        0.43330    0.51370    0.11618    1.000
    H98      H        0.45990    0.55860    0.11930    1.000
    C147     C        0.44010    0.47426    0.16004    1.000
    C148     C        0.40160    0.40730    0.15203    1.000
    H99      H        0.40430    0.37830    0.18040    1.000
    C149     C        0.36020    0.38440    0.10279    1.000
    H100     H        0.33670    0.33920    0.09860    1.000
    C150     C        0.48480    0.50128    0.21358    1.000
    C151     C        0.45600    0.56740    0.22500    1.000
    H101     H        0.41190    0.59550    0.19860    1.000
    C152     C        0.49160    0.59250    0.27469    1.000
    H102     H        0.47300    0.63730    0.28140    1.000
    C153     C        0.55510    0.55130    0.31477    1.000
    C154     C        0.58490    0.48540    0.30372    1.000
    H103     H        0.62910    0.45740    0.33010    1.000
    C155     C        0.54950    0.46080    0.25368    1.000
    H104     H        0.56960    0.41620    0.24680    1.000
    C156     C        0.46860    0.62090    0.38302    1.000
    C157     C        0.31810    0.60190    0.37699    1.000
    H105     H        0.28940    0.56130    0.36100    1.000
    C158     C        0.20950    0.64290    0.39461    1.000
    H106     H        0.10760    0.63010    0.38960    1.000
    C159     C        0.24900    0.70297    0.41963    1.000
    C160     C        0.39890    0.72150    0.42414    1.000
    H107     H        0.42740    0.76230    0.43960    1.000
    C161     C        0.51000    0.68130    0.40636    1.000
    H108     H        0.61140    0.69500    0.41010    1.000
    C162     C        0.13140    0.74400    0.44129    1.000
    C163     C        0.00600    0.71430    0.45954    1.000
    H109     H        0.99420    0.66800    0.45800    1.000
    C164     C        0.89920    0.75320    0.47990    1.000
    H110     H        0.81630    0.73210    0.49200    1.000
    C165     C        0.02970    0.84830    0.46547    1.000
    H111     H        0.03840    0.89460    0.46730    1.000
    C166     C        0.14210    0.81250    0.44469    1.000
    H112     H        0.22440    0.83470    0.43310    1.000
    C167     C        0.70020    0.55420    0.40348    1.000
    C168     C        0.67930    0.55050    0.45553    1.000
    H113     H        0.58530    0.56190    0.46580    1.000
    C169     C        0.79610    0.52990    0.49281    1.000
    H114     H        0.77880    0.52880    0.52770    1.000
    C170     C        0.93740    0.51091    0.47995    1.000
    C171     C        0.95400    0.51321    0.42698    1.000
    H115     H        0.04590    0.49960    0.41610    1.000
    C172     C        0.83870    0.53496    0.38997    1.000
    H116     H        0.85570    0.53660    0.35500    1.000
    C173     C        0.50550    0.30210    0.95234    1.000
    C174     C        0.63310    0.26428    0.93348    1.000
    C175     C        0.63230    0.19520    0.93077    1.000
    H117     H        0.55290    0.17160    0.94300    1.000
    C176     C        0.74660    0.16050    0.91032    1.000
    H118     H        0.74180    0.11400    0.90860    1.000
    C177     C        0.86850    0.19343    0.89224    1.000
    C178     C        0.87510    0.26330    0.89714    1.000
    H119     H        0.95760    0.28670    0.88690    1.000
    C179     C        0.75940    0.29730    0.91714    1.000
    H120     H        0.76520    0.34370    0.91990    1.000
    C180     C        0.98640    0.15701    0.86746    1.000
    C181     C        0.13790    0.15500    0.88874    1.000
    H121     H        0.16860    0.17800    0.91960    1.000
    C182     C        0.24320    0.11960    0.86486    1.000
    H122     H        0.34390    0.11760    0.88020    1.000
    C183     C        0.20060    0.08660    0.81808    1.000
    H123     H        0.27330    0.06300    0.80220    1.000
    C184     C        0.05160    0.08830    0.79479    1.000
    C185     C        0.94600    0.12318    0.82044    1.000
    H124     H        0.84460    0.12400    0.80570    1.000
    C186     C        0.00600    0.05500    0.74377    1.000
    C187     C        0.06710    0.99510    0.73170    1.000
    H125     H        0.14110    0.97550    0.75560    1.000
    C188     C        0.02230    0.96280    0.68482    1.000
    H126     H        0.06540    0.92170    0.67800    1.000
    C189     C        0.91430    0.99090    0.64814    1.000
    C190     C        0.85510    0.05210    0.65920    1.000
    H127     H        0.78430    0.07260    0.63460    1.000
    C191     C        0.89960    0.08400    0.70669    1.000
    H128     H        0.85730    0.12520    0.71360    1.000
    C192     C        0.85720    0.95360    0.59901    1.000
    Cd4      Cd       0.27435    0.37911    0.97925    1.000
    N10      N        0.58250    0.57782    0.36631    1.000
    N11      N        0.35080    0.42321    0.05950    1.000
    N12      N        0.90870    0.81943    0.48317    1.000
    O13      O        0.39130    0.27202    0.96359    1.000
    O14      O        0.51730    0.36366    0.95681    1.000
    O15      O        0.78550    0.98387    0.56194    1.000
    O16      O        0.87890    0.89251    0.59820    1.000
