# CIF file generated by openbabel 3.1.0, see https://openbabel.org
data_I
_chemical_name_common 'image0'
_cell_length_a 10.28
_cell_length_b 32.067
_cell_length_c 6.9403
_cell_angle_alpha 90
_cell_angle_beta 90
_cell_angle_gamma 90
_space_group_name_H-M_alt 'P 1'
_space_group_name_Hall 'P 1'
loop_
    _symmetry_equiv_pos_as_xyz
    x,y,z
loop_
    _atom_site_label
    _atom_site_type_symbol
    _atom_site_fract_x
    _atom_site_fract_y
    _atom_site_fract_z
    _atom_site_occupancy
    C1       C        0.43030    0.27060    0.89000    1.000
    C2       C        0.43100    0.31440    0.89100    1.000
    C3       C        0.93030    0.77060    0.89000    1.000
    C4       C        0.93100    0.81440    0.89100    1.000
    C5       C        0.56970    0.72940    0.39000    1.000
    C6       C        0.56900    0.68560    0.39100    1.000
    C7       C        0.06970    0.22940    0.39000    1.000
    C8       C        0.06900    0.18560    0.39100    1.000
    C9       C        0.56970    0.27060    0.61000    1.000
    C10      C        0.56900    0.31440    0.60900    1.000
    C11      C        0.06970    0.77060    0.61000    1.000
    C12      C        0.06900    0.81440    0.60900    1.000
    C13      C        0.43030    0.72940    0.11000    1.000
    C14      C        0.43100    0.68560    0.10900    1.000
    C15      C        0.93030    0.22940    0.11000    1.000
    C16      C        0.93100    0.18560    0.10900    1.000
    C17      C        0.56970    0.72940    0.11000    1.000
    C18      C        0.56900    0.68560    0.10900    1.000
    C19      C        0.06970    0.22940    0.11000    1.000
    C20      C        0.06900    0.18560    0.10900    1.000
    C21      C        0.43030    0.27060    0.61000    1.000
    C22      C        0.43100    0.31440    0.60900    1.000
    C23      C        0.93030    0.77060    0.61000    1.000
    C24      C        0.93100    0.81440    0.60900    1.000
    C25      C        0.43030    0.72940    0.39000    1.000
    C26      C        0.43100    0.68560    0.39100    1.000
    C27      C        0.93030    0.22940    0.39000    1.000
    C28      C        0.93100    0.18560    0.39100    1.000
    C29      C        0.56970    0.27060    0.89000    1.000
    C30      C        0.56900    0.31440    0.89100    1.000
    C31      C        0.06970    0.77060    0.89000    1.000
    C32      C        0.06900    0.81440    0.89100    1.000
    Zn1      Zn       0.50000    0.40383    0.25000    1.000
    O1       O        0.50000    0.46630    0.25000    1.000
    Zn2      Zn       0.00000    0.90383    0.25000    1.000
    O2       O        0.00000    0.96630    0.25000    1.000
    Zn3      Zn       0.50000    0.59617    0.75000    1.000
    O3       O        0.50000    0.53370    0.75000    1.000
    Zn4      Zn       0.00000    0.09617    0.75000    1.000
    O4       O        0.00000    0.03370    0.75000    1.000
    Zn5      Zn       0.50000    0.50000    0.00000    1.000
    Zn6      Zn       0.00000    0.00000    0.00000    1.000
    Zn7      Zn       0.50000    0.50000    0.50000    1.000
    Zn8      Zn       0.00000    0.00000    0.50000    1.000
    O5       O        0.16230    0.13040    0.75000    1.000
    O6       O        0.26100    0.07230    0.75000    1.000
    C33      C        0.38800    0.13490    0.75000    1.000
    C34      C        0.26500    0.11130    0.75000    1.000
    C35      C        0.38590    0.17960    0.75000    1.000
    H1       H        0.30710    0.19380    0.75000    1.000
    O7       O        0.66230    0.63040    0.75000    1.000
    O8       O        0.76100    0.57230    0.75000    1.000
    C36      C        0.88800    0.63490    0.75000    1.000
    C37      C        0.76500    0.61130    0.75000    1.000
    C38      C        0.88590    0.67960    0.75000    1.000
    H2       H        0.80710    0.69380    0.75000    1.000
    O9       O        0.83770    0.86960    0.25000    1.000
    O10      O        0.73900    0.92770    0.25000    1.000
    C39      C        0.61200    0.86510    0.25000    1.000
    C40      C        0.73500    0.88870    0.25000    1.000
    C41      C        0.61410    0.82040    0.25000    1.000
    H3       H        0.69290    0.80620    0.25000    1.000
    O11      O        0.33770    0.36960    0.25000    1.000
    O12      O        0.23900    0.42770    0.25000    1.000
    C42      C        0.11200    0.36510    0.25000    1.000
    C43      C        0.23500    0.38870    0.25000    1.000
    C44      C        0.11410    0.32040    0.25000    1.000
    H4       H        0.19290    0.30620    0.25000    1.000
    O13      O        0.83770    0.13040    0.75000    1.000
    O14      O        0.73900    0.07230    0.75000    1.000
    C45      C        0.61200    0.13490    0.75000    1.000
    C46      C        0.73500    0.11130    0.75000    1.000
    C47      C        0.61410    0.17960    0.75000    1.000
    H5       H        0.69290    0.19380    0.75000    1.000
    O15      O        0.33770    0.63040    0.75000    1.000
    O16      O        0.23900    0.57230    0.75000    1.000
    C48      C        0.11200    0.63490    0.75000    1.000
    C49      C        0.23500    0.61130    0.75000    1.000
    C50      C        0.11410    0.67960    0.75000    1.000
    H6       H        0.19290    0.69380    0.75000    1.000
    O17      O        0.16230    0.86960    0.25000    1.000
    O18      O        0.26100    0.92770    0.25000    1.000
    C51      C        0.38800    0.86510    0.25000    1.000
    C52      C        0.26500    0.88870    0.25000    1.000
    C53      C        0.38590    0.82040    0.25000    1.000
    H7       H        0.30710    0.80620    0.25000    1.000
    O19      O        0.66230    0.36960    0.25000    1.000
    O20      O        0.76100    0.42770    0.25000    1.000
    C54      C        0.88800    0.36510    0.25000    1.000
    C55      C        0.76500    0.38870    0.25000    1.000
    C56      C        0.88590    0.32040    0.25000    1.000
    H8       H        0.80710    0.30620    0.25000    1.000
    N1       N        0.50000    0.40470    0.59110    1.000
    N2       N        0.50000    0.44390    0.66130    1.000
    N3       N        0.00000    0.90470    0.59110    1.000
    N4       N        0.00000    0.94390    0.66130    1.000
    N5       N        0.50000    0.59530    0.09110    1.000
    N6       N        0.50000    0.55610    0.16130    1.000
    N7       N        0.00000    0.09530    0.09110    1.000
    N8       N        0.00000    0.05610    0.16130    1.000
    N9       N        0.50000    0.40470    0.90890    1.000
    N10      N        0.50000    0.44390    0.83870    1.000
    N11      N        0.00000    0.90470    0.90890    1.000
    N12      N        0.00000    0.94390    0.83870    1.000
    N13      N        0.50000    0.59530    0.40890    1.000
    N14      N        0.50000    0.55610    0.33870    1.000
    N15      N        0.00000    0.09530    0.40890    1.000
    N16      N        0.00000    0.05610    0.33870    1.000
    C57      C        0.50000    0.11320    0.75000    1.000
    H9       H        0.50000    0.08420    0.75000    1.000
    C58      C        0.50000    0.20090    0.75000    1.000
    C59      C        0.50000    0.24820    0.75000    1.000
    C60      C        0.50000    0.33510    0.75000    1.000
    C61      C        0.50000    0.38120    0.75000    1.000
    C62      C        0.00000    0.61320    0.75000    1.000
    H10      H        0.00000    0.58420    0.75000    1.000
    C63      C        0.00000    0.70090    0.75000    1.000
    C64      C        0.00000    0.74820    0.75000    1.000
    C65      C        0.00000    0.83510    0.75000    1.000
    C66      C        0.00000    0.88120    0.75000    1.000
    C67      C        0.50000    0.88680    0.25000    1.000
    H11      H        0.50000    0.91580    0.25000    1.000
    C68      C        0.50000    0.79910    0.25000    1.000
    C69      C        0.50000    0.75180    0.25000    1.000
    C70      C        0.50000    0.66490    0.25000    1.000
    C71      C        0.50000    0.61880    0.25000    1.000
    C72      C        0.00000    0.38680    0.25000    1.000
    H12      H        0.00000    0.41580    0.25000    1.000
    C73      C        0.00000    0.29910    0.25000    1.000
    C74      C        0.00000    0.25180    0.25000    1.000
    C75      C        0.00000    0.16490    0.25000    1.000
    C76      C        0.00000    0.11880    0.25000    1.000
