# CIF file generated by openbabel 3.1.0, see https://openbabel.org
data_I
_chemical_name_common 'image0'
_cell_length_a 26.5738
_cell_length_b 26.5738
_cell_length_c 6.8088
_cell_angle_alpha 90
_cell_angle_beta 90
_cell_angle_gamma 120
_space_group_name_H-M_alt 'P 1'
_space_group_name_Hall 'P 1'
loop_
    _symmetry_equiv_pos_as_xyz
    x,y,z
loop_
    _atom_site_label
    _atom_site_type_symbol
    _atom_site_fract_x
    _atom_site_fract_y
    _atom_site_fract_z
    _atom_site_occupancy
    Mn1      Mn       0.39072    0.35177    0.14297    1.000
    C1       C        0.32125    0.20173    0.28665    1.000
    C2       C        0.33897    0.21815    0.09342    1.000
    C3       C        0.35106    0.18309    0.97344    1.000
    H1       H        0.36482    0.19584    0.82338    1.000
    C4       C        0.30825    0.23943    0.41570    1.000
    O1       O        0.31334    0.28585    0.34960    1.000
    O2       O        0.29227    0.22463    0.58990    1.000
    O3       O        0.34444    0.26801    0.02250    1.000
    Mn2      Mn       0.05739    0.68510    0.47630    1.000
    C5       C        0.98792    0.53506    0.61998    1.000
    C6       C        0.00564    0.55148    0.42675    1.000
    C7       C        0.01773    0.51642    0.30677    1.000
    H2       H        0.03149    0.52917    0.15671    1.000
    C8       C        0.97492    0.57276    0.74903    1.000
    O4       O        0.98001    0.61918    0.68293    1.000
    O5       O        0.95894    0.55796    0.92323    1.000
    O6       O        0.01111    0.60134    0.35583    1.000
    Mn3      Mn       0.72405    0.01844    0.80964    1.000
    C9       C        0.65458    0.86840    0.95332    1.000
    C10      C        0.67230    0.88482    0.76009    1.000
    C11      C        0.68439    0.84976    0.64011    1.000
    H3       H        0.69815    0.86251    0.49005    1.000
    C12      C        0.64158    0.90610    0.08237    1.000
    O7       O        0.64667    0.95252    0.01627    1.000
    O8       O        0.62560    0.89130    0.25657    1.000
    O9       O        0.67777    0.93468    0.68917    1.000
    Mn4      Mn       0.64823    0.03895    0.14297    1.000
    C13      C        0.79827    0.11952    0.28665    1.000
    C14      C        0.78185    0.12082    0.09342    1.000
    C15      C        0.81691    0.16797    0.97344    1.000
    H4       H        0.80416    0.16898    0.82338    1.000
    C16      C        0.76057    0.06882    0.41570    1.000
    O10      O        0.71415    0.02749    0.34960    1.000
    O11      O        0.77537    0.06764    0.58990    1.000
    O12      O        0.73199    0.07643    0.02250    1.000
    Mn5      Mn       0.31490    0.37228    0.47630    1.000
    C17      C        0.46494    0.45285    0.61998    1.000
    C18      C        0.44852    0.45415    0.42675    1.000
    C19      C        0.48358    0.50130    0.30677    1.000
    H5       H        0.47083    0.50231    0.15671    1.000
    C20      C        0.42724    0.40215    0.74903    1.000
    O13      O        0.38082    0.36082    0.68293    1.000
    O14      O        0.44204    0.40097    0.92323    1.000
    O15      O        0.39866    0.40976    0.35583    1.000
    Mn6      Mn       0.98156    0.70562    0.80964    1.000
    C21      C        0.13160    0.78619    0.95332    1.000
    C22      C        0.11518    0.78749    0.76009    1.000
    C23      C        0.15024    0.83464    0.64011    1.000
    H6       H        0.13749    0.83565    0.49005    1.000
    C24      C        0.09390    0.73549    0.08237    1.000
    O16      O        0.04748    0.69416    0.01627    1.000
    O17      O        0.10870    0.73431    0.25657    1.000
    O18      O        0.06532    0.74310    0.68917    1.000
    Mn7      Mn       0.96105    0.60928    0.14297    1.000
    C25      C        0.88048    0.67875    0.28665    1.000
    C26      C        0.87918    0.66103    0.09342    1.000
    C27      C        0.83203    0.64894    0.97344    1.000
    H7       H        0.83102    0.63518    0.82338    1.000
    C28      C        0.93118    0.69175    0.41570    1.000
    O19      O        0.97251    0.68666    0.34960    1.000
    O20      O        0.93236    0.70773    0.58990    1.000
    O21      O        0.92357    0.65556    0.02250    1.000
    Mn8      Mn       0.62772    0.94261    0.47630    1.000
    C29      C        0.54715    0.01208    0.61998    1.000
    C30      C        0.54585    0.99436    0.42675    1.000
    C31      C        0.49870    0.98227    0.30677    1.000
    H8       H        0.49769    0.96851    0.15671    1.000
    C32      C        0.59785    0.02508    0.74903    1.000
    O22      O        0.63918    0.01999    0.68293    1.000
    O23      O        0.59903    0.04106    0.92323    1.000
    O24      O        0.59024    0.98889    0.35583    1.000
    Mn9      Mn       0.29438    0.27595    0.80964    1.000
    C33      C        0.21381    0.34542    0.95332    1.000
    C34      C        0.21251    0.32770    0.76009    1.000
    C35      C        0.16536    0.31561    0.64011    1.000
    H9       H        0.16435    0.30185    0.49005    1.000
    C36      C        0.26451    0.35842    0.08237    1.000
    O25      O        0.30584    0.35333    0.01627    1.000
    O26      O        0.26569    0.37440    0.25657    1.000
    O27      O        0.25690    0.32223    0.68917    1.000
    Mn10     Mn       0.60928    0.64823    0.85703    1.000
    C37      C        0.67875    0.79827    0.71335    1.000
    C38      C        0.66103    0.78185    0.90658    1.000
    C39      C        0.64894    0.81691    0.02656    1.000
    H10      H        0.63518    0.80416    0.17662    1.000
    C40      C        0.69175    0.76057    0.58430    1.000
    O28      O        0.68666    0.71415    0.65040    1.000
    O29      O        0.70773    0.77537    0.41010    1.000
    O30      O        0.65556    0.73199    0.97750    1.000
    Mn11     Mn       0.27595    0.98156    0.19036    1.000
    C41      C        0.34542    0.13160    0.04668    1.000
    C42      C        0.32770    0.11518    0.23991    1.000
    C43      C        0.31561    0.15024    0.35989    1.000
    H11      H        0.30185    0.13749    0.50995    1.000
    C44      C        0.35842    0.09390    0.91763    1.000
    O31      O        0.35333    0.04748    0.98373    1.000
    O32      O        0.37440    0.10870    0.74343    1.000
    O33      O        0.32223    0.06532    0.31083    1.000
    Mn12     Mn       0.94261    0.31490    0.52370    1.000
    C45      C        0.01208    0.46494    0.38002    1.000
    C46      C        0.99436    0.44852    0.57325    1.000
    C47      C        0.98227    0.48358    0.69323    1.000
    H12      H        0.96851    0.47083    0.84329    1.000
    C48      C        0.02508    0.42724    0.25097    1.000
    O34      O        0.01999    0.38082    0.31707    1.000
    O35      O        0.04106    0.44204    0.07677    1.000
    O36      O        0.98889    0.39866    0.64417    1.000
    Mn13     Mn       0.35177    0.96105    0.85703    1.000
    C49      C        0.20173    0.88048    0.71335    1.000
    C50      C        0.21815    0.87918    0.90658    1.000
    C51      C        0.18309    0.83203    0.02656    1.000
    H13      H        0.19584    0.83102    0.17662    1.000
    C52      C        0.23943    0.93118    0.58430    1.000
    O37      O        0.28585    0.97251    0.65040    1.000
    O38      O        0.22463    0.93236    0.41010    1.000
    O39      O        0.26801    0.92357    0.97750    1.000
    Mn14     Mn       0.01844    0.29438    0.19036    1.000
    C53      C        0.86840    0.21381    0.04668    1.000
    C54      C        0.88482    0.21251    0.23991    1.000
    C55      C        0.84976    0.16536    0.35989    1.000
    H14      H        0.86251    0.16435    0.50995    1.000
    C56      C        0.90610    0.26451    0.91763    1.000
    O40      O        0.95252    0.30584    0.98373    1.000
    O41      O        0.89130    0.26569    0.74343    1.000
    O42      O        0.93468    0.25690    0.31083    1.000
    Mn15     Mn       0.68510    0.62772    0.52370    1.000
    C57      C        0.53506    0.54715    0.38002    1.000
    C58      C        0.55148    0.54585    0.57325    1.000
    C59      C        0.51642    0.49870    0.69323    1.000
    H15      H        0.52917    0.49769    0.84329    1.000
    C60      C        0.57276    0.59785    0.25097    1.000
    O43      O        0.61918    0.63918    0.31707    1.000
    O44      O        0.55796    0.59903    0.07677    1.000
    O45      O        0.60134    0.59024    0.64417    1.000
    Mn16     Mn       0.03895    0.39072    0.85703    1.000
    C61      C        0.11952    0.32125    0.71335    1.000
    C62      C        0.12082    0.33897    0.90658    1.000
    C63      C        0.16797    0.35106    0.02656    1.000
    H16      H        0.16898    0.36482    0.17662    1.000
    C64      C        0.06882    0.30825    0.58430    1.000
    O46      O        0.02749    0.31334    0.65040    1.000
    O47      O        0.06764    0.29227    0.41010    1.000
    O48      O        0.07643    0.34444    0.97750    1.000
    Mn17     Mn       0.70562    0.72405    0.19036    1.000
    C65      C        0.78619    0.65458    0.04668    1.000
    C66      C        0.78749    0.67230    0.23991    1.000
    C67      C        0.83464    0.68439    0.35989    1.000
    H17      H        0.83565    0.69815    0.50995    1.000
    C68      C        0.73549    0.64158    0.91763    1.000
    O49      O        0.69416    0.64667    0.98373    1.000
    O50      O        0.73431    0.62560    0.74343    1.000
    O51      O        0.74310    0.67777    0.31083    1.000
    Mn18     Mn       0.37228    0.05739    0.52370    1.000
    C69      C        0.45285    0.98792    0.38002    1.000
    C70      C        0.45415    0.00564    0.57325    1.000
    C71      C        0.50130    0.01773    0.69323    1.000
    H18      H        0.50231    0.03149    0.84329    1.000
    C72      C        0.40215    0.97492    0.25097    1.000
    O52      O        0.36082    0.98001    0.31707    1.000
    O53      O        0.40097    0.95894    0.07677    1.000
    O54      O        0.40976    0.01111    0.64417    1.000
