# CIF file generated by openbabel 3.1.0, see https://openbabel.org
data_I
_chemical_name_common 'image0'
_cell_length_a 25.994
_cell_length_b 25.994
_cell_length_c 6.8127
_cell_angle_alpha 90
_cell_angle_beta 90
_cell_angle_gamma 120
_space_group_name_H-M_alt 'P 1'
_space_group_name_Hall 'P 1'
loop_
    _symmetry_equiv_pos_as_xyz
    x,y,z
loop_
    _atom_site_label
    _atom_site_type_symbol
    _atom_site_fract_x
    _atom_site_fract_y
    _atom_site_fract_z
    _atom_site_occupancy
    Co1      Co       0.94947    0.63467    0.01866    1.000
    O1       O        0.89530    0.63350    0.23500    1.000
    O2       O        0.94070    0.69020    0.83090    1.000
    O3       O        0.00730    0.63670    0.80300    1.000
    C1       C        0.98900    0.54450    0.07600    1.000
    C2       C        0.01570    0.59540    0.74120    1.000
    C3       C        0.98350    0.49780    0.19160    1.000
    C4       C        0.00570    0.54650    0.88060    1.000
    H1       H        0.97200    0.49590    0.32500    1.000
    Co2      Co       0.61614    0.96800    0.35199    1.000
    O4       O        0.56197    0.96683    0.56833    1.000
    O5       O        0.60737    0.02353    0.16423    1.000
    O6       O        0.67397    0.97003    0.13633    1.000
    C5       C        0.65567    0.87783    0.40933    1.000
    C6       C        0.68237    0.92873    0.07453    1.000
    C7       C        0.65017    0.83113    0.52493    1.000
    C8       C        0.67237    0.87983    0.21393    1.000
    H2       H        0.63867    0.82923    0.65833    1.000
    Co3      Co       0.28280    0.30134    0.68533    1.000
    O7       O        0.22863    0.30017    0.90167    1.000
    O8       O        0.27403    0.35687    0.49757    1.000
    O9       O        0.34063    0.30337    0.46967    1.000
    C9       C        0.32233    0.21117    0.74267    1.000
    C10      C        0.34903    0.26207    0.40787    1.000
    C11      C        0.31683    0.16447    0.85827    1.000
    C12      C        0.33903    0.21317    0.54727    1.000
    H3       H        0.30533    0.16257    0.99167    1.000
    Co4      Co       0.36533    0.31480    0.01866    1.000
    O10      O        0.36650    0.26180    0.23500    1.000
    O11      O        0.30980    0.25050    0.83090    1.000
    O12      O        0.36330    0.37060    0.80300    1.000
    C13      C        0.45550    0.44450    0.07600    1.000
    C14      C        0.40460    0.42030    0.74120    1.000
    C15      C        0.50220    0.48570    0.19160    1.000
    C16      C        0.45350    0.45920    0.88060    1.000
    H4       H        0.50410    0.47610    0.32500    1.000
    Co5      Co       0.03200    0.64813    0.35199    1.000
    O13      O        0.03317    0.59513    0.56833    1.000
    O14      O        0.97647    0.58383    0.16423    1.000
    O15      O        0.02997    0.70393    0.13633    1.000
    C17      C        0.12217    0.77783    0.40933    1.000
    C18      C        0.07127    0.75363    0.07453    1.000
    C19      C        0.16887    0.81903    0.52493    1.000
    C20      C        0.12017    0.79253    0.21393    1.000
    H5       H        0.17077    0.80943    0.65833    1.000
    Co6      Co       0.69866    0.98147    0.68533    1.000
    O16      O        0.69983    0.92847    0.90167    1.000
    O17      O        0.64313    0.91717    0.49757    1.000
    O18      O        0.69663    0.03727    0.46967    1.000
    C21      C        0.78883    0.11117    0.74267    1.000
    C22      C        0.73793    0.08697    0.40787    1.000
    C23      C        0.83553    0.15237    0.85827    1.000
    C24      C        0.78683    0.12587    0.54727    1.000
    H6       H        0.83743    0.14277    0.99167    1.000
    Co7      Co       0.68520    0.05053    0.01866    1.000
    O19      O        0.73820    0.10470    0.23500    1.000
    O20      O        0.74950    0.05930    0.83090    1.000
    O21      O        0.62940    0.99270    0.80300    1.000
    C25      C        0.55550    0.01100    0.07600    1.000
    C26      C        0.57970    0.98430    0.74120    1.000
    C27      C        0.51430    0.01650    0.19160    1.000
    C28      C        0.54080    0.99430    0.88060    1.000
    H7       H        0.52390    0.02800    0.32500    1.000
    Co8      Co       0.35187    0.38386    0.35199    1.000
    O22      O        0.40487    0.43803    0.56833    1.000
    O23      O        0.41617    0.39263    0.16423    1.000
    O24      O        0.29607    0.32603    0.13633    1.000
    C29      C        0.22217    0.34433    0.40933    1.000
    C30      C        0.24637    0.31763    0.07453    1.000
    C31      C        0.18097    0.34983    0.52493    1.000
    C32      C        0.20747    0.32763    0.21393    1.000
    H8       H        0.19057    0.36133    0.65833    1.000
    Co9      Co       0.01853    0.71720    0.68533    1.000
    O25      O        0.07153    0.77137    0.90167    1.000
    O26      O        0.08283    0.72597    0.49757    1.000
    O27      O        0.96273    0.65937    0.46967    1.000
    C33      C        0.88883    0.67767    0.74267    1.000
    C34      C        0.91303    0.65097    0.40787    1.000
    C35      C        0.84763    0.68317    0.85827    1.000
    C36      C        0.87413    0.66097    0.54727    1.000
    H9       H        0.85723    0.69467    0.99167    1.000
    Co10     Co       0.05053    0.36533    0.98134    1.000
    O28      O        0.10470    0.36650    0.76500    1.000
    O29      O        0.05930    0.30980    0.16910    1.000
    O30      O        0.99270    0.36330    0.19700    1.000
    C37      C        0.01100    0.45550    0.92400    1.000
    C38      C        0.98430    0.40460    0.25880    1.000
    C39      C        0.01650    0.50220    0.80840    1.000
    C40      C        0.99430    0.45350    0.11940    1.000
    H10      H        0.02800    0.50410    0.67500    1.000
    Co11     Co       0.71720    0.69866    0.31467    1.000
    O31      O        0.77137    0.69983    0.09833    1.000
    O32      O        0.72597    0.64313    0.50243    1.000
    O33      O        0.65937    0.69663    0.53033    1.000
    C41      C        0.67767    0.78883    0.25733    1.000
    C42      C        0.65097    0.73793    0.59213    1.000
    C43      C        0.68317    0.83553    0.14173    1.000
    C44      C        0.66097    0.78683    0.45273    1.000
    H11      H        0.69467    0.83743    0.00833    1.000
    Co12     Co       0.38386    0.03200    0.64801    1.000
    O34      O        0.43803    0.03317    0.43167    1.000
    O35      O        0.39263    0.97647    0.83577    1.000
    O36      O        0.32603    0.02997    0.86367    1.000
    C45      C        0.34433    0.12217    0.59067    1.000
    C46      C        0.31763    0.07127    0.92547    1.000
    C47      C        0.34983    0.16887    0.47507    1.000
    C48      C        0.32763    0.12017    0.78607    1.000
    H12      H        0.36133    0.17077    0.34167    1.000
    Co13     Co       0.63467    0.68520    0.98134    1.000
    O37      O        0.63350    0.73820    0.76500    1.000
    O38      O        0.69020    0.74950    0.16910    1.000
    O39      O        0.63670    0.62940    0.19700    1.000
    C49      C        0.54450    0.55550    0.92400    1.000
    C50      C        0.59540    0.57970    0.25880    1.000
    C51      C        0.49780    0.51430    0.80840    1.000
    C52      C        0.54650    0.54080    0.11940    1.000
    H13      H        0.49590    0.52390    0.67500    1.000
    Co14     Co       0.30134    0.01853    0.31467    1.000
    O40      O        0.30017    0.07153    0.09833    1.000
    O41      O        0.35687    0.08283    0.50243    1.000
    O42      O        0.30337    0.96273    0.53033    1.000
    C53      C        0.21117    0.88883    0.25733    1.000
    C54      C        0.26207    0.91303    0.59213    1.000
    C55      C        0.16447    0.84763    0.14173    1.000
    C56      C        0.21317    0.87413    0.45273    1.000
    H14      H        0.16257    0.85723    0.00833    1.000
    Co15     Co       0.96800    0.35187    0.64801    1.000
    O43      O        0.96683    0.40487    0.43167    1.000
    O44      O        0.02353    0.41617    0.83577    1.000
    O45      O        0.97003    0.29607    0.86367    1.000
    C57      C        0.87783    0.22217    0.59067    1.000
    C58      C        0.92873    0.24637    0.92547    1.000
    C59      C        0.83113    0.18097    0.47507    1.000
    C60      C        0.87983    0.20747    0.78607    1.000
    H15      H        0.82923    0.19057    0.34167    1.000
    Co16     Co       0.31480    0.94947    0.98134    1.000
    O46      O        0.26180    0.89530    0.76500    1.000
    O47      O        0.25050    0.94070    0.16910    1.000
    O48      O        0.37060    0.00730    0.19700    1.000
    C61      C        0.44450    0.98900    0.92400    1.000
    C62      C        0.42030    0.01570    0.25880    1.000
    C63      C        0.48570    0.98350    0.80840    1.000
    C64      C        0.45920    0.00570    0.11940    1.000
    H16      H        0.47610    0.97200    0.67500    1.000
    Co17     Co       0.98147    0.28280    0.31467    1.000
    O49      O        0.92847    0.22863    0.09833    1.000
    O50      O        0.91717    0.27403    0.50243    1.000
    O51      O        0.03727    0.34063    0.53033    1.000
    C65      C        0.11117    0.32233    0.25733    1.000
    C66      C        0.08697    0.34903    0.59213    1.000
    C67      C        0.15237    0.31683    0.14173    1.000
    C68      C        0.12587    0.33903    0.45273    1.000
    H17      H        0.14277    0.30533    0.00833    1.000
    Co18     Co       0.64813    0.61614    0.64801    1.000
    O52      O        0.59513    0.56197    0.43167    1.000
    O53      O        0.58383    0.60737    0.83577    1.000
    O54      O        0.70393    0.67397    0.86367    1.000
    C69      C        0.77783    0.65567    0.59067    1.000
    C70      C        0.75363    0.68237    0.92547    1.000
    C71      C        0.81903    0.65017    0.47507    1.000
    C72      C        0.79253    0.67237    0.78607    1.000
    H18      H        0.80943    0.63867    0.34167    1.000
