# CIF file generated by openbabel 3.1.0, see https://openbabel.org
data_I
_chemical_name_common 'image0'
_cell_length_a 29.6024
_cell_length_b 13.478
_cell_length_c 13.3524
_cell_angle_alpha 90
_cell_angle_beta 96.594
_cell_angle_gamma 90
_space_group_name_H-M_alt 'P 1'
_space_group_name_Hall 'P 1'
loop_
    _symmetry_equiv_pos_as_xyz
    x,y,z
loop_
    _atom_site_label
    _atom_site_type_symbol
    _atom_site_fract_x
    _atom_site_fract_y
    _atom_site_fract_z
    _atom_site_occupancy
    Eu1      Eu       0.81385    0.20291    0.54140    1.000
    C1       C        0.89837    0.24030    0.46560    1.000
    C2       C        0.94350    0.26170    0.43150    1.000
    C3       C        0.96010    0.35840    0.43690    1.000
    H1       H        0.94230    0.40910    0.45880    1.000
    C4       C        0.00310    0.38000    0.41010    1.000
    H2       H        0.01330    0.44530    0.41060    1.000
    C5       C        0.03080    0.30360    0.38260    1.000
    C6       C        0.01350    0.20710    0.37490    1.000
    H3       H        0.03130    0.15610    0.35360    1.000
    C7       C        0.97010    0.18650    0.39890    1.000
    H4       H        0.95890    0.12200    0.39310    1.000
    C8       C        0.07820    0.32020    0.36330    1.000
    H5       H        0.09000    0.25900    0.33200    1.000
    C9       C        0.24532    0.56950    0.44160    1.000
    C10      C        0.21452    0.49560    0.38410    1.000
    C11      C        0.16891    0.48910    0.39740    1.000
    H6       H        0.15640    0.53250    0.44080    1.000
    C12      C        0.14178    0.41690    0.34520    1.000
    C13      C        0.16030    0.35730    0.27420    1.000
    H7       H        0.14210    0.31090    0.23710    1.000
    C14      C        0.20545    0.36720    0.25910    1.000
    C15      C        0.23267    0.43550    0.31550    1.000
    H8       H        0.26330    0.44080    0.30690    1.000
    C16      C        0.22596    0.30570    0.18100    1.000
    C17      C        0.85450    0.04600    0.75270    1.000
    C18      C        0.87270    0.98190    0.62050    1.000
    N1       N        0.09563    0.40920    0.36370    1.000
    N2       N        0.85466    0.06420    0.65380    1.000
    N3       N        0.87040    0.95600    0.77380    1.000
    H9       H        0.87400    0.92500    0.84200    1.000
    N4       N        0.88250    0.91160    0.68950    1.000
    N5       N        0.84450    0.10890    0.82860    1.000
    O1       O        0.88261    0.15210    0.45930    1.000
    O2       O        0.87701    0.30870    0.50230    1.000
    O3       O        0.22942    0.64990    0.46970    1.000
    O4       O        0.28678    0.54940    0.45980    1.000
    O5       O        0.20018    0.24360    0.13310    1.000
    O6       O        0.26635    0.32360    0.16960    1.000
    N6       N        0.88800    0.96030    0.53010    1.000
    Eu2      Eu       0.31385    0.70291    0.54140    1.000
    C19      C        0.39837    0.74030    0.46560    1.000
    C20      C        0.44350    0.76170    0.43150    1.000
    C21      C        0.46010    0.85840    0.43690    1.000
    H10      H        0.44230    0.90910    0.45880    1.000
    C22      C        0.50310    0.88000    0.41010    1.000
    H11      H        0.51330    0.94530    0.41060    1.000
    C23      C        0.53080    0.80360    0.38260    1.000
    C24      C        0.51350    0.70710    0.37490    1.000
    H12      H        0.53130    0.65610    0.35360    1.000
    C25      C        0.47010    0.68650    0.39890    1.000
    H13      H        0.45890    0.62200    0.39310    1.000
    C26      C        0.57820    0.82020    0.36330    1.000
    H14      H        0.59000    0.75900    0.33200    1.000
    C27      C        0.74532    0.06950    0.44160    1.000
    C28      C        0.71452    0.99560    0.38410    1.000
    C29      C        0.66891    0.98910    0.39740    1.000
    H15      H        0.65640    0.03250    0.44080    1.000
    C30      C        0.64178    0.91690    0.34520    1.000
    C31      C        0.66030    0.85730    0.27420    1.000
    H16      H        0.64210    0.81090    0.23710    1.000
    C32      C        0.70545    0.86720    0.25910    1.000
    C33      C        0.73267    0.93550    0.31550    1.000
    H17      H        0.76330    0.94080    0.30690    1.000
    C34      C        0.72596    0.80570    0.18100    1.000
    C35      C        0.35450    0.54600    0.75270    1.000
    C36      C        0.37270    0.48190    0.62050    1.000
    N7       N        0.59563    0.90920    0.36370    1.000
    N8       N        0.35466    0.56420    0.65380    1.000
    N9       N        0.37040    0.45600    0.77380    1.000
    H18      H        0.37400    0.42500    0.84200    1.000
    N10      N        0.38250    0.41160    0.68950    1.000
    N11      N        0.34450    0.60890    0.82860    1.000
    O7       O        0.38261    0.65210    0.45930    1.000
    O8       O        0.37701    0.80870    0.50230    1.000
    O9       O        0.72942    0.14990    0.46970    1.000
    O10      O        0.78678    0.04940    0.45980    1.000
    O11      O        0.70018    0.74360    0.13310    1.000
    O12      O        0.76635    0.82360    0.16960    1.000
    N12      N        0.38800    0.46030    0.53010    1.000
    Eu3      Eu       0.18615    0.20291    0.95860    1.000
    C37      C        0.10163    0.24030    0.03440    1.000
    C38      C        0.05650    0.26170    0.06850    1.000
    C39      C        0.03990    0.35840    0.06310    1.000
    H19      H        0.05770    0.40910    0.04120    1.000
    C40      C        0.99690    0.38000    0.08990    1.000
    H20      H        0.98670    0.44530    0.08940    1.000
    C41      C        0.96920    0.30360    0.11740    1.000
    C42      C        0.98650    0.20710    0.12510    1.000
    H21      H        0.96870    0.15610    0.14640    1.000
    C43      C        0.02990    0.18650    0.10110    1.000
    H22      H        0.04110    0.12200    0.10690    1.000
    C44      C        0.92180    0.32020    0.13670    1.000
    H23      H        0.91000    0.25900    0.16800    1.000
    C45      C        0.75468    0.56950    0.05840    1.000
    C46      C        0.78548    0.49560    0.11590    1.000
    C47      C        0.83109    0.48910    0.10260    1.000
    H24      H        0.84360    0.53250    0.05920    1.000
    C48      C        0.85822    0.41690    0.15480    1.000
    C49      C        0.83970    0.35730    0.22580    1.000
    H25      H        0.85790    0.31090    0.26290    1.000
    C50      C        0.79455    0.36720    0.24090    1.000
    C51      C        0.76733    0.43550    0.18450    1.000
    H26      H        0.73670    0.44080    0.19310    1.000
    C52      C        0.77404    0.30570    0.31900    1.000
    C53      C        0.14550    0.04600    0.74730    1.000
    C54      C        0.12730    0.98190    0.87950    1.000
    N13      N        0.90437    0.40920    0.13630    1.000
    N14      N        0.14534    0.06420    0.84620    1.000
    N15      N        0.12960    0.95600    0.72620    1.000
    H27      H        0.12600    0.92500    0.65800    1.000
    N16      N        0.11750    0.91160    0.81050    1.000
    N17      N        0.15550    0.10890    0.67140    1.000
    O13      O        0.11739    0.15210    0.04070    1.000
    O14      O        0.12299    0.30870    0.99770    1.000
    O15      O        0.77058    0.64990    0.03030    1.000
    O16      O        0.71322    0.54940    0.04020    1.000
    O17      O        0.79982    0.24360    0.36690    1.000
    O18      O        0.73365    0.32360    0.33040    1.000
    N18      N        0.11200    0.96030    0.96990    1.000
    Eu4      Eu       0.68615    0.70291    0.95860    1.000
    C55      C        0.60163    0.74030    0.03440    1.000
    C56      C        0.55650    0.76170    0.06850    1.000
    C57      C        0.53990    0.85840    0.06310    1.000
    H28      H        0.55770    0.90910    0.04120    1.000
    C58      C        0.49690    0.88000    0.08990    1.000
    H29      H        0.48670    0.94530    0.08940    1.000
    C59      C        0.46920    0.80360    0.11740    1.000
    C60      C        0.48650    0.70710    0.12510    1.000
    H30      H        0.46870    0.65610    0.14640    1.000
    C61      C        0.52990    0.68650    0.10110    1.000
    H31      H        0.54110    0.62200    0.10690    1.000
    C62      C        0.42180    0.82020    0.13670    1.000
    H32      H        0.41000    0.75900    0.16800    1.000
    C63      C        0.25468    0.06950    0.05840    1.000
    C64      C        0.28548    0.99560    0.11590    1.000
    C65      C        0.33109    0.98910    0.10260    1.000
    H33      H        0.34360    0.03250    0.05920    1.000
    C66      C        0.35822    0.91690    0.15480    1.000
    C67      C        0.33970    0.85730    0.22580    1.000
    H34      H        0.35790    0.81090    0.26290    1.000
    C68      C        0.29455    0.86720    0.24090    1.000
    C69      C        0.26733    0.93550    0.18450    1.000
    H35      H        0.23670    0.94080    0.19310    1.000
    C70      C        0.27404    0.80570    0.31900    1.000
    C71      C        0.64550    0.54600    0.74730    1.000
    C72      C        0.62730    0.48190    0.87950    1.000
    N19      N        0.40437    0.90920    0.13630    1.000
    N20      N        0.64534    0.56420    0.84620    1.000
    N21      N        0.62960    0.45600    0.72620    1.000
    H36      H        0.62600    0.42500    0.65800    1.000
    N22      N        0.61750    0.41160    0.81050    1.000
    N23      N        0.65550    0.60890    0.67140    1.000
    O19      O        0.61739    0.65210    0.04070    1.000
    O20      O        0.62299    0.80870    0.99770    1.000
    O21      O        0.27058    0.14990    0.03030    1.000
    O22      O        0.21322    0.04940    0.04020    1.000
    O23      O        0.29982    0.74360    0.36690    1.000
    O24      O        0.23365    0.82360    0.33040    1.000
    N24      N        0.61200    0.46030    0.96990    1.000
    Eu5      Eu       0.18615    0.79709    0.45860    1.000
    C73      C        0.10163    0.75970    0.53440    1.000
    C74      C        0.05650    0.73830    0.56850    1.000
    C75      C        0.03990    0.64160    0.56310    1.000
    H37      H        0.05770    0.59090    0.54120    1.000
    C76      C        0.99690    0.62000    0.58990    1.000
    H38      H        0.98670    0.55470    0.58940    1.000
    C77      C        0.96920    0.69640    0.61740    1.000
    C78      C        0.98650    0.79290    0.62510    1.000
    H39      H        0.96870    0.84390    0.64640    1.000
    C79      C        0.02990    0.81350    0.60110    1.000
    H40      H        0.04110    0.87800    0.60690    1.000
    C80      C        0.92180    0.67980    0.63670    1.000
    H41      H        0.91000    0.74100    0.66800    1.000
    C81      C        0.75468    0.43050    0.55840    1.000
    C82      C        0.78548    0.50440    0.61590    1.000
    C83      C        0.83109    0.51090    0.60260    1.000
    H42      H        0.84360    0.46750    0.55920    1.000
    C84      C        0.85822    0.58310    0.65480    1.000
    C85      C        0.83970    0.64270    0.72580    1.000
    H43      H        0.85790    0.68910    0.76290    1.000
    C86      C        0.79455    0.63280    0.74090    1.000
    C87      C        0.76733    0.56450    0.68450    1.000
    H44      H        0.73670    0.55920    0.69310    1.000
    C88      C        0.77404    0.69430    0.81900    1.000
    C89      C        0.14550    0.95400    0.24730    1.000
    C90      C        0.12730    0.01810    0.37950    1.000
    N25      N        0.90437    0.59080    0.63630    1.000
    N26      N        0.14534    0.93580    0.34620    1.000
    N27      N        0.12960    0.04400    0.22620    1.000
    H45      H        0.12600    0.07500    0.15800    1.000
    N28      N        0.11750    0.08840    0.31050    1.000
    N29      N        0.15550    0.89110    0.17140    1.000
    O25      O        0.11739    0.84790    0.54070    1.000
    O26      O        0.12299    0.69130    0.49770    1.000
    O27      O        0.77058    0.35010    0.53030    1.000
    O28      O        0.71322    0.45060    0.54020    1.000
    O29      O        0.79982    0.75640    0.86690    1.000
    O30      O        0.73365    0.67640    0.83040    1.000
    N30      N        0.11200    0.03970    0.46990    1.000
    Eu6      Eu       0.68615    0.29709    0.45860    1.000
    C91      C        0.60163    0.25970    0.53440    1.000
    C92      C        0.55650    0.23830    0.56850    1.000
    C93      C        0.53990    0.14160    0.56310    1.000
    H46      H        0.55770    0.09090    0.54120    1.000
    C94      C        0.49690    0.12000    0.58990    1.000
    H47      H        0.48670    0.05470    0.58940    1.000
    C95      C        0.46920    0.19640    0.61740    1.000
    C96      C        0.48650    0.29290    0.62510    1.000
    H48      H        0.46870    0.34390    0.64640    1.000
    C97      C        0.52990    0.31350    0.60110    1.000
    H49      H        0.54110    0.37800    0.60690    1.000
    C98      C        0.42180    0.17980    0.63670    1.000
    H50      H        0.41000    0.24100    0.66800    1.000
    C99      C        0.25468    0.93050    0.55840    1.000
    C100     C        0.28548    0.00440    0.61590    1.000
    C101     C        0.33109    0.01090    0.60260    1.000
    H51      H        0.34360    0.96750    0.55920    1.000
    C102     C        0.35822    0.08310    0.65480    1.000
    C103     C        0.33970    0.14270    0.72580    1.000
    H52      H        0.35790    0.18910    0.76290    1.000
    C104     C        0.29455    0.13280    0.74090    1.000
    C105     C        0.26733    0.06450    0.68450    1.000
    H53      H        0.23670    0.05920    0.69310    1.000
    C106     C        0.27404    0.19430    0.81900    1.000
    C107     C        0.64550    0.45400    0.24730    1.000
    C108     C        0.62730    0.51810    0.37950    1.000
    N31      N        0.40437    0.09080    0.63630    1.000
    N32      N        0.64534    0.43580    0.34620    1.000
    N33      N        0.62960    0.54400    0.22620    1.000
    H54      H        0.62600    0.57500    0.15800    1.000
    N34      N        0.61750    0.58840    0.31050    1.000
    N35      N        0.65550    0.39110    0.17140    1.000
    O31      O        0.61739    0.34790    0.54070    1.000
    O32      O        0.62299    0.19130    0.49770    1.000
    O33      O        0.27058    0.85010    0.53030    1.000
    O34      O        0.21322    0.95060    0.54020    1.000
    O35      O        0.29982    0.25640    0.86690    1.000
    O36      O        0.23365    0.17640    0.83040    1.000
    N36      N        0.61200    0.53970    0.46990    1.000
    Eu7      Eu       0.81385    0.79709    0.04140    1.000
    C109     C        0.89837    0.75970    0.96560    1.000
    C110     C        0.94350    0.73830    0.93150    1.000
    C111     C        0.96010    0.64160    0.93690    1.000
    H55      H        0.94230    0.59090    0.95880    1.000
    C112     C        0.00310    0.62000    0.91010    1.000
    H56      H        0.01330    0.55470    0.91060    1.000
    C113     C        0.03080    0.69640    0.88260    1.000
    C114     C        0.01350    0.79290    0.87490    1.000
    H57      H        0.03130    0.84390    0.85360    1.000
    C115     C        0.97010    0.81350    0.89890    1.000
    H58      H        0.95890    0.87800    0.89310    1.000
    C116     C        0.07820    0.67980    0.86330    1.000
    H59      H        0.09000    0.74100    0.83200    1.000
    C117     C        0.24532    0.43050    0.94160    1.000
    C118     C        0.21452    0.50440    0.88410    1.000
    C119     C        0.16891    0.51090    0.89740    1.000
    H60      H        0.15640    0.46750    0.94080    1.000
    C120     C        0.14178    0.58310    0.84520    1.000
    C121     C        0.16030    0.64270    0.77420    1.000
    H61      H        0.14210    0.68910    0.73710    1.000
    C122     C        0.20545    0.63280    0.75910    1.000
    C123     C        0.23267    0.56450    0.81550    1.000
    H62      H        0.26330    0.55920    0.80690    1.000
    C124     C        0.22596    0.69430    0.68100    1.000
    C125     C        0.85450    0.95400    0.25270    1.000
    C126     C        0.87270    0.01810    0.12050    1.000
    N37      N        0.09563    0.59080    0.86370    1.000
    N38      N        0.85466    0.93580    0.15380    1.000
    N39      N        0.87040    0.04400    0.27380    1.000
    H63      H        0.87400    0.07500    0.34200    1.000
    N40      N        0.88250    0.08840    0.18950    1.000
    N41      N        0.84450    0.89110    0.32860    1.000
    O37      O        0.88261    0.84790    0.95930    1.000
    O38      O        0.87701    0.69130    0.00230    1.000
    O39      O        0.22942    0.35010    0.96970    1.000
    O40      O        0.28678    0.45060    0.95980    1.000
    O41      O        0.20018    0.75640    0.63310    1.000
    O42      O        0.26635    0.67640    0.66960    1.000
    N42      N        0.88800    0.03970    0.03010    1.000
    Eu8      Eu       0.31385    0.29709    0.04140    1.000
    C127     C        0.39837    0.25970    0.96560    1.000
    C128     C        0.44350    0.23830    0.93150    1.000
    C129     C        0.46010    0.14160    0.93690    1.000
    H64      H        0.44230    0.09090    0.95880    1.000
    C130     C        0.50310    0.12000    0.91010    1.000
    H65      H        0.51330    0.05470    0.91060    1.000
    C131     C        0.53080    0.19640    0.88260    1.000
    C132     C        0.51350    0.29290    0.87490    1.000
    H66      H        0.53130    0.34390    0.85360    1.000
    C133     C        0.47010    0.31350    0.89890    1.000
    H67      H        0.45890    0.37800    0.89310    1.000
    C134     C        0.57820    0.17980    0.86330    1.000
    H68      H        0.59000    0.24100    0.83200    1.000
    C135     C        0.74532    0.93050    0.94160    1.000
    C136     C        0.71452    0.00440    0.88410    1.000
    C137     C        0.66891    0.01090    0.89740    1.000
    H69      H        0.65640    0.96750    0.94080    1.000
    C138     C        0.64178    0.08310    0.84520    1.000
    C139     C        0.66030    0.14270    0.77420    1.000
    H70      H        0.64210    0.18910    0.73710    1.000
    C140     C        0.70545    0.13280    0.75910    1.000
    C141     C        0.73267    0.06450    0.81550    1.000
    H71      H        0.76330    0.05920    0.80690    1.000
    C142     C        0.72596    0.19430    0.68100    1.000
    C143     C        0.35450    0.45400    0.25270    1.000
    C144     C        0.37270    0.51810    0.12050    1.000
    N43      N        0.59563    0.09080    0.86370    1.000
    N44      N        0.35466    0.43580    0.15380    1.000
    N45      N        0.37040    0.54400    0.27380    1.000
    H72      H        0.37400    0.57500    0.34200    1.000
    N46      N        0.38250    0.58840    0.18950    1.000
    N47      N        0.34450    0.39110    0.32860    1.000
    O43      O        0.38261    0.34790    0.95930    1.000
    O44      O        0.37701    0.19130    0.00230    1.000
    O45      O        0.72942    0.85010    0.96970    1.000
    O46      O        0.78678    0.95060    0.95980    1.000
    O47      O        0.70018    0.25640    0.63310    1.000
    O48      O        0.76635    0.17640    0.66960    1.000
    N48      N        0.38800    0.53970    0.03010    1.000
