# CIF file generated by openbabel 3.1.0, see https://openbabel.org
data_I
_chemical_name_common 'AMOFAK_clean'
_cell_length_a 16.5736
_cell_length_b 21.7897
_cell_length_c 35.132
_cell_angle_alpha 90
_cell_angle_beta 90
_cell_angle_gamma 90
_space_group_name_H-M_alt 'P 1'
_space_group_name_Hall 'P 1'
loop_
    _symmetry_equiv_pos_as_xyz
    x,y,z
loop_
    _atom_site_label
    _atom_site_type_symbol
    _atom_site_fract_x
    _atom_site_fract_y
    _atom_site_fract_z
    _atom_site_occupancy
    Eu1      Eu       0.24283    0.57432    0.88597    1.000
    Eu2      Eu       0.17561    0.39480    0.87925    1.000
    Eu3      Eu       0.25717    0.42568    0.38597    1.000
    Eu4      Eu       0.32439    0.60520    0.37925    1.000
    H1       H        0.27460    0.57070    0.75710    1.000
    H2       H        0.28600    0.56750    0.69050    1.000
    H3       H        0.25600    0.38230    0.69440    1.000
    H4       H        0.24220    0.38900    0.76090    1.000
    H5       H        0.26830    0.43310    0.63190    1.000
    H6       H        0.46400    0.34690    0.89010    1.000
    H7       H        0.60190    0.36020    0.87860    1.000
    H8       H        0.57350    0.54510    0.89140    1.000
    H9       H        0.43490    0.52950    0.90300    1.000
    H10      H        0.71810    0.42200    0.87980    1.000
    H11      H        0.36680    0.60190    0.50920    1.000
    H12      H        0.35650    0.59860    0.57560    1.000
    H13      H        0.27270    0.42420    0.57090    1.000
    H14      H        0.28040    0.42650    0.50470    1.000
    H15      H        0.31830    0.55310    0.63320    1.000
    H16      H        0.95850    0.62270    0.87440    1.000
    H17      H        0.81980    0.61010    0.87770    1.000
    H18      H        0.84140    0.42760    0.86000    1.000
    H19      H        0.98320    0.43800    0.85750    1.000
    H20      H        0.69960    0.54820    0.88040    1.000
    H21      H        0.20630    0.78510    0.83350    1.000
    H22      H        0.19180    0.89260    0.83750    1.000
    H23      H        0.13480    0.87600    0.94900    1.000
    H24      H        0.15520    0.77010    0.94600    1.000
    H25      H        0.12150    0.97870    0.92030    1.000
    H26      H        0.15290    0.18510    0.93520    1.000
    H27      H        0.14100    0.07670    0.93080    1.000
    H28      H        0.21000    0.08280    0.82170    1.000
    H29      H        0.22190    0.19090    0.82440    1.000
    H30      H        0.19790    0.98390    0.84960    1.000
    H31      H        0.22540    0.42930    0.25710    1.000
    H32      H        0.21400    0.43250    0.19050    1.000
    H33      H        0.24400    0.61770    0.19440    1.000
    H34      H        0.25780    0.61100    0.26090    1.000
    H35      H        0.23170    0.56690    0.13190    1.000
    H36      H        0.03600    0.65310    0.39010    1.000
    H37      H        0.89810    0.63980    0.37860    1.000
    H38      H        0.92650    0.45490    0.39140    1.000
    H39      H        0.06510    0.47050    0.40300    1.000
    H40      H        0.78190    0.57800    0.37980    1.000
    H41      H        0.13320    0.39810    0.00920    1.000
    H42      H        0.14350    0.40140    0.07560    1.000
    H43      H        0.22730    0.57580    0.07090    1.000
    H44      H        0.21960    0.57350    0.00470    1.000
    H45      H        0.18170    0.44690    0.13320    1.000
    H46      H        0.54150    0.37730    0.37440    1.000
    H47      H        0.68020    0.38990    0.37770    1.000
    H48      H        0.65860    0.57240    0.36000    1.000
    H49      H        0.51680    0.56200    0.35750    1.000
    H50      H        0.80040    0.45180    0.38040    1.000
    H51      H        0.29370    0.21490    0.33350    1.000
    H52      H        0.30820    0.10740    0.33750    1.000
    H53      H        0.36520    0.12400    0.44900    1.000
    H54      H        0.34480    0.22990    0.44600    1.000
    H55      H        0.37850    0.02130    0.42030    1.000
    H56      H        0.34710    0.81490    0.43520    1.000
    H57      H        0.35900    0.92330    0.43080    1.000
    H58      H        0.29000    0.91720    0.32170    1.000
    H59      H        0.27810    0.80910    0.32440    1.000
    H60      H        0.30210    0.01610    0.34960    1.000
    C1       C        0.24970    0.48260    0.80780    1.000
    C2       C        0.25810    0.48080    0.76550    1.000
    C3       C        0.27070    0.53230    0.74450    1.000
    C4       C        0.27810    0.53070    0.70460    1.000
    C5       C        0.27350    0.47460    0.68640    1.000
    C6       C        0.25990    0.42080    0.70690    1.000
    C7       C        0.25200    0.42520    0.74660    1.000
    C8       C        0.28170    0.47110    0.64360    1.000
    C9       C        0.34410    0.42910    0.89460    1.000
    C10      C        0.43490    0.43850    0.89280    1.000
    C11      C        0.48620    0.38710    0.88910    1.000
    C12      C        0.56850    0.39450    0.88400    1.000
    C13      C        0.60170    0.45300    0.88680    1.000
    C14      C        0.55150    0.50480    0.89160    1.000
    C15      C        0.46840    0.49560    0.89670    1.000
    C16      C        0.68800    0.45900    0.88130    1.000
    C17      C        0.32560    0.51590    0.45820    1.000
    C18      C        0.32550    0.51210    0.50000    1.000
    C19      C        0.34800    0.56590    0.52170    1.000
    C20      C        0.34160    0.56370    0.56110    1.000
    C21      C        0.31400    0.51170    0.57950    1.000
    C22      C        0.29150    0.46000    0.55830    1.000
    C23      C        0.29690    0.46140    0.51890    1.000
    C24      C        0.30530    0.51510    0.62150    1.000
    C25      C        0.07360    0.53770    0.86790    1.000
    C26      C        0.98420    0.53180    0.86590    1.000
    C27      C        0.93540    0.58300    0.87190    1.000
    C28      C        0.85300    0.57500    0.87410    1.000
    C29      C        0.81600    0.51740    0.87120    1.000
    C30      C        0.86530    0.46670    0.86370    1.000
    C31      C        0.94990    0.47290    0.86170    1.000
    C32      C        0.72950    0.51120    0.87800    1.000
    C33      C        0.20570    0.70000    0.88740    1.000
    C34      C        0.18470    0.76840    0.88910    1.000
    C35      C        0.19330    0.80370    0.85710    1.000
    C36      C        0.18260    0.86780    0.85940    1.000
    C37      C        0.15870    0.89490    0.89360    1.000
    C38      C        0.14980    0.85770    0.92550    1.000
    C39      C        0.16200    0.79480    0.92390    1.000
    C40      C        0.14820    0.96300    0.89840    1.000
    C41      C        0.19530    0.26510    0.88200    1.000
    C42      C        0.18670    0.19610    0.88040    1.000
    C43      C        0.16410    0.16450    0.91190    1.000
    C44      C        0.15790    0.09970    0.90930    1.000
    C45      C        0.17590    0.06940    0.87580    1.000
    C46      C        0.19850    0.10340    0.84490    1.000
    C47      C        0.20530    0.16790    0.84600    1.000
    C48      C        0.17620    0.00110    0.87220    1.000
    C49      C        0.25030    0.51740    0.30780    1.000
    C50      C        0.24190    0.51920    0.26550    1.000
    C51      C        0.22930    0.46770    0.24450    1.000
    C52      C        0.22190    0.46930    0.20460    1.000
    C53      C        0.22650    0.52540    0.18640    1.000
    C54      C        0.24010    0.57920    0.20690    1.000
    C55      C        0.24800    0.57480    0.24660    1.000
    C56      C        0.21830    0.52890    0.14360    1.000
    C57      C        0.15590    0.57090    0.39460    1.000
    C58      C        0.06510    0.56150    0.39280    1.000
    C59      C        0.01380    0.61290    0.38910    1.000
    C60      C        0.93150    0.60550    0.38400    1.000
    C61      C        0.89830    0.54700    0.38680    1.000
    C62      C        0.94850    0.49520    0.39160    1.000
    C63      C        0.03160    0.50440    0.39670    1.000
    C64      C        0.81200    0.54100    0.38130    1.000
    C65      C        0.17440    0.48410    0.95820    1.000
    C66      C        0.17450    0.48790    0.00000    1.000
    C67      C        0.15200    0.43410    0.02170    1.000
    C68      C        0.15840    0.43630    0.06110    1.000
    C69      C        0.18600    0.48830    0.07950    1.000
    C70      C        0.20850    0.54000    0.05830    1.000
    C71      C        0.20310    0.53860    0.01890    1.000
    C72      C        0.19470    0.48490    0.12150    1.000
    C73      C        0.42640    0.46230    0.36790    1.000
    C74      C        0.51580    0.46820    0.36590    1.000
    C75      C        0.56460    0.41700    0.37190    1.000
    C76      C        0.64700    0.42500    0.37410    1.000
    C77      C        0.68400    0.48260    0.37120    1.000
    C78      C        0.63470    0.53330    0.36370    1.000
    C79      C        0.55010    0.52710    0.36170    1.000
    C80      C        0.77050    0.48880    0.37800    1.000
    C81      C        0.29430    0.30000    0.38740    1.000
    C82      C        0.31530    0.23160    0.38910    1.000
    C83      C        0.30670    0.19630    0.35710    1.000
    C84      C        0.31740    0.13220    0.35940    1.000
    C85      C        0.34130    0.10510    0.39360    1.000
    C86      C        0.35020    0.14230    0.42550    1.000
    C87      C        0.33800    0.20520    0.42390    1.000
    C88      C        0.35180    0.03700    0.39840    1.000
    C89      C        0.30470    0.73490    0.38200    1.000
    C90      C        0.31330    0.80390    0.38040    1.000
    C91      C        0.33590    0.83550    0.41190    1.000
    C92      C        0.34210    0.90030    0.40930    1.000
    C93      C        0.32410    0.93060    0.37580    1.000
    C94      C        0.30150    0.89660    0.34490    1.000
    C95      C        0.29470    0.83210    0.34600    1.000
    C96      C        0.32380    0.99890    0.37220    1.000
    O1       O        0.25000    0.53560    0.82283    1.000
    O2       O        0.24190    0.43250    0.82474    1.000
    O3       O        0.31450    0.37630    0.89444    1.000
    O4       O        0.30020    0.47860    0.89533    1.000
    O5       O        0.33210    0.56740    0.44189    1.000
    O6       O        0.31920    0.46490    0.44044    1.000
    O7       O        0.11860    0.49180    0.86844    1.000
    O8       O        0.10260    0.59220    0.86992    1.000
    O9       O        0.20070    0.66950    0.91764    1.000
    O10      O        0.22950    0.67770    0.85630    1.000
    O11      O        0.18060    0.29350    0.91326    1.000
    O12      O        0.21240    0.29580    0.85186    1.000
    O13      O        0.25000    0.46440    0.32283    1.000
    O14      O        0.25810    0.56750    0.32474    1.000
    O15      O        0.18550    0.62370    0.39444    1.000
    O16      O        0.19980    0.52140    0.39533    1.000
    O17      O        0.16790    0.43260    0.94189    1.000
    O18      O        0.18080    0.53510    0.94044    1.000
    O19      O        0.38140    0.50820    0.36844    1.000
    O20      O        0.39740    0.40780    0.36992    1.000
    O21      O        0.29930    0.33050    0.41764    1.000
    O22      O        0.27050    0.32230    0.35630    1.000
    O23      O        0.31940    0.70650    0.41326    1.000
    O24      O        0.28760    0.70420    0.35186    1.000
    Eu5      Eu       0.75717    0.07432    0.61403    1.000
    Eu6      Eu       0.82439    0.89480    0.62075    1.000
    Eu7      Eu       0.74283    0.92568    0.11403    1.000
    Eu8      Eu       0.67561    0.10520    0.12075    1.000
    H61      H        0.72540    0.07070    0.74290    1.000
    H62      H        0.71400    0.06750    0.80950    1.000
    H63      H        0.74400    0.88230    0.80560    1.000
    H64      H        0.75780    0.88900    0.73910    1.000
    H65      H        0.73170    0.93310    0.86810    1.000
    H66      H        0.53600    0.84690    0.60990    1.000
    H67      H        0.39810    0.86020    0.62140    1.000
    H68      H        0.42650    0.04510    0.60860    1.000
    H69      H        0.56510    0.02950    0.59700    1.000
    H70      H        0.28190    0.92200    0.62020    1.000
    H71      H        0.63320    0.10190    0.99080    1.000
    H72      H        0.64350    0.09860    0.92440    1.000
    H73      H        0.72730    0.92420    0.92910    1.000
    H74      H        0.71960    0.92650    0.99530    1.000
    H75      H        0.68170    0.05310    0.86680    1.000
    H76      H        0.04150    0.12270    0.62560    1.000
    H77      H        0.18020    0.11010    0.62230    1.000
    H78      H        0.15860    0.92760    0.64000    1.000
    H79      H        0.01680    0.93800    0.64250    1.000
    H80      H        0.30040    0.04820    0.61960    1.000
    H81      H        0.79370    0.28510    0.66650    1.000
    H82      H        0.80820    0.39260    0.66250    1.000
    H83      H        0.86520    0.37600    0.55100    1.000
    H84      H        0.84480    0.27010    0.55400    1.000
    H85      H        0.87850    0.47870    0.57970    1.000
    H86      H        0.84710    0.68510    0.56480    1.000
    H87      H        0.85900    0.57670    0.56920    1.000
    H88      H        0.79000    0.58280    0.67830    1.000
    H89      H        0.77810    0.69090    0.67560    1.000
    H90      H        0.80210    0.48390    0.65040    1.000
    H91      H        0.77460    0.92930    0.24290    1.000
    H92      H        0.78600    0.93250    0.30950    1.000
    H93      H        0.75600    0.11770    0.30560    1.000
    H94      H        0.74220    0.11100    0.23910    1.000
    H95      H        0.76830    0.06690    0.36810    1.000
    H96      H        0.96400    0.15310    0.10990    1.000
    H97      H        0.10190    0.13980    0.12140    1.000
    H98      H        0.07350    0.95490    0.10860    1.000
    H99      H        0.93490    0.97050    0.09700    1.000
    H100     H        0.21810    0.07800    0.12020    1.000
    H101     H        0.86680    0.89810    0.49080    1.000
    H102     H        0.85650    0.90140    0.42440    1.000
    H103     H        0.77270    0.07580    0.42910    1.000
    H104     H        0.78040    0.07350    0.49530    1.000
    H105     H        0.81830    0.94690    0.36680    1.000
    H106     H        0.45850    0.87730    0.12560    1.000
    H107     H        0.31980    0.88990    0.12230    1.000
    H108     H        0.34140    0.07240    0.14000    1.000
    H109     H        0.48320    0.06200    0.14250    1.000
    H110     H        0.19960    0.95180    0.11960    1.000
    H111     H        0.70630    0.71490    0.16650    1.000
    H112     H        0.69180    0.60740    0.16250    1.000
    H113     H        0.63480    0.62400    0.05100    1.000
    H114     H        0.65520    0.72990    0.05400    1.000
    H115     H        0.62150    0.52130    0.07970    1.000
    H116     H        0.65290    0.31490    0.06480    1.000
    H117     H        0.64100    0.42330    0.06920    1.000
    H118     H        0.71000    0.41720    0.17830    1.000
    H119     H        0.72190    0.30910    0.17560    1.000
    H120     H        0.69790    0.51610    0.15040    1.000
    C97      C        0.75030    0.98260    0.69220    1.000
    C98      C        0.74190    0.98080    0.73450    1.000
    C99      C        0.72930    0.03230    0.75550    1.000
    C100     C        0.72190    0.03070    0.79540    1.000
    C101     C        0.72650    0.97460    0.81360    1.000
    C102     C        0.74010    0.92080    0.79310    1.000
    C103     C        0.74800    0.92520    0.75340    1.000
    C104     C        0.71830    0.97110    0.85640    1.000
    C105     C        0.65590    0.92910    0.60540    1.000
    C106     C        0.56510    0.93850    0.60720    1.000
    C107     C        0.51380    0.88710    0.61090    1.000
    C108     C        0.43150    0.89450    0.61600    1.000
    C109     C        0.39830    0.95300    0.61320    1.000
    C110     C        0.44850    0.00480    0.60840    1.000
    C111     C        0.53160    0.99560    0.60330    1.000
    C112     C        0.31200    0.95900    0.61870    1.000
    C113     C        0.67440    0.01590    0.04180    1.000
    C114     C        0.67450    0.01210    0.00000    1.000
    C115     C        0.65200    0.06590    0.97830    1.000
    C116     C        0.65840    0.06370    0.93890    1.000
    C117     C        0.68600    0.01170    0.92050    1.000
    C118     C        0.70850    0.96000    0.94170    1.000
    C119     C        0.70310    0.96140    0.98110    1.000
    C120     C        0.69470    0.01510    0.87850    1.000
    C121     C        0.92640    0.03770    0.63210    1.000
    C122     C        0.01580    0.03180    0.63410    1.000
    C123     C        0.06460    0.08300    0.62810    1.000
    C124     C        0.14700    0.07500    0.62590    1.000
    C125     C        0.18400    0.01740    0.62880    1.000
    C126     C        0.13470    0.96670    0.63630    1.000
    C127     C        0.05010    0.97290    0.63830    1.000
    C128     C        0.27050    0.01120    0.62200    1.000
    C129     C        0.79430    0.20000    0.61260    1.000
    C130     C        0.81530    0.26840    0.61090    1.000
    C131     C        0.80670    0.30370    0.64290    1.000
    C132     C        0.81740    0.36780    0.64060    1.000
    C133     C        0.84130    0.39490    0.60640    1.000
    C134     C        0.85020    0.35770    0.57450    1.000
    C135     C        0.83800    0.29480    0.57610    1.000
    C136     C        0.85180    0.46300    0.60160    1.000
    C137     C        0.80470    0.76510    0.61800    1.000
    C138     C        0.81330    0.69610    0.61960    1.000
    C139     C        0.83590    0.66450    0.58810    1.000
    C140     C        0.84210    0.59970    0.59070    1.000
    C141     C        0.82410    0.56940    0.62420    1.000
    C142     C        0.80150    0.60340    0.65510    1.000
    C143     C        0.79470    0.66790    0.65400    1.000
    C144     C        0.82380    0.50110    0.62780    1.000
    C145     C        0.74970    0.01740    0.19220    1.000
    C146     C        0.75810    0.01920    0.23450    1.000
    C147     C        0.77070    0.96770    0.25550    1.000
    C148     C        0.77810    0.96930    0.29540    1.000
    C149     C        0.77350    0.02540    0.31360    1.000
    C150     C        0.75990    0.07920    0.29310    1.000
    C151     C        0.75200    0.07480    0.25340    1.000
    C152     C        0.78170    0.02890    0.35640    1.000
    C153     C        0.84410    0.07090    0.10540    1.000
    C154     C        0.93490    0.06150    0.10720    1.000
    C155     C        0.98620    0.11290    0.11090    1.000
    C156     C        0.06850    0.10550    0.11600    1.000
    C157     C        0.10170    0.04700    0.11320    1.000
    C158     C        0.05150    0.99520    0.10840    1.000
    C159     C        0.96840    0.00440    0.10330    1.000
    C160     C        0.18800    0.04100    0.11870    1.000
    C161     C        0.82560    0.98410    0.54180    1.000
    C162     C        0.82550    0.98790    0.50000    1.000
    C163     C        0.84800    0.93410    0.47830    1.000
    C164     C        0.84160    0.93630    0.43890    1.000
    C165     C        0.81400    0.98830    0.42050    1.000
    C166     C        0.79150    0.04000    0.44170    1.000
    C167     C        0.79690    0.03860    0.48110    1.000
    C168     C        0.80530    0.98490    0.37850    1.000
    C169     C        0.57360    0.96230    0.13210    1.000
    C170     C        0.48420    0.96820    0.13410    1.000
    C171     C        0.43540    0.91700    0.12810    1.000
    C172     C        0.35300    0.92500    0.12590    1.000
    C173     C        0.31600    0.98260    0.12880    1.000
    C174     C        0.36530    0.03330    0.13630    1.000
    C175     C        0.44990    0.02710    0.13830    1.000
    C176     C        0.22950    0.98880    0.12200    1.000
    C177     C        0.70570    0.80000    0.11260    1.000
    C178     C        0.68470    0.73160    0.11090    1.000
    C179     C        0.69330    0.69630    0.14290    1.000
    C180     C        0.68260    0.63220    0.14060    1.000
    C181     C        0.65870    0.60510    0.10640    1.000
    C182     C        0.64980    0.64230    0.07450    1.000
    C183     C        0.66200    0.70520    0.07610    1.000
    C184     C        0.64820    0.53700    0.10160    1.000
    C185     C        0.69530    0.23490    0.11800    1.000
    C186     C        0.68670    0.30390    0.11960    1.000
    C187     C        0.66410    0.33550    0.08810    1.000
    C188     C        0.65790    0.40030    0.09070    1.000
    C189     C        0.67590    0.43060    0.12420    1.000
    C190     C        0.69850    0.39660    0.15510    1.000
    C191     C        0.70530    0.33210    0.15400    1.000
    C192     C        0.67620    0.49890    0.12780    1.000
    O25      O        0.75000    0.03560    0.67717    1.000
    O26      O        0.75810    0.93250    0.67526    1.000
    O27      O        0.68550    0.87630    0.60556    1.000
    O28      O        0.69980    0.97860    0.60467    1.000
    O29      O        0.66790    0.06740    0.05811    1.000
    O30      O        0.68080    0.96490    0.05956    1.000
    O31      O        0.88140    0.99180    0.63156    1.000
    O32      O        0.89740    0.09220    0.63008    1.000
    O33      O        0.79930    0.16950    0.58236    1.000
    O34      O        0.77050    0.17770    0.64370    1.000
    O35      O        0.81940    0.79350    0.58674    1.000
    O36      O        0.78760    0.79580    0.64814    1.000
    O37      O        0.75000    0.96440    0.17717    1.000
    O38      O        0.74190    0.06750    0.17526    1.000
    O39      O        0.81450    0.12370    0.10556    1.000
    O40      O        0.80020    0.02140    0.10467    1.000
    O41      O        0.83210    0.93260    0.55811    1.000
    O42      O        0.81920    0.03510    0.55956    1.000
    O43      O        0.61860    0.00820    0.13156    1.000
    O44      O        0.60260    0.90780    0.13008    1.000
    O45      O        0.70070    0.83050    0.08236    1.000
    O46      O        0.72950    0.82230    0.14370    1.000
    O47      O        0.68060    0.20650    0.08674    1.000
    O48      O        0.71240    0.20420    0.14814    1.000
