# CIF file generated by openbabel 3.1.0, see https://openbabel.org
data_I
_chemical_name_common 'image0'
_cell_length_a 19.3184
_cell_length_b 19.3184
_cell_length_c 19.3184
_cell_angle_alpha 90
_cell_angle_beta 90
_cell_angle_gamma 90
_space_group_name_H-M_alt 'P 1'
_space_group_name_Hall 'P 1'
loop_
    _symmetry_equiv_pos_as_xyz
    x,y,z
loop_
    _atom_site_label
    _atom_site_type_symbol
    _atom_site_fract_x
    _atom_site_fract_y
    _atom_site_fract_z
    _atom_site_occupancy
    N1       N        0.45636    0.53280    0.09650    1.000
    C1       C        0.31240    0.55860    0.21490    1.000
    C2       C        0.25200    0.56040    0.17990    1.000
    H1       H        0.25270    0.56230    0.13080    1.000
    C3       C        0.18690    0.55970    0.21540    1.000
    H2       H        0.14450    0.55990    0.19050    1.000
    C4       C        0.38840    0.52750    0.11340    1.000
    H3       H        0.35360    0.50730    0.08510    1.000
    C5       C        0.48580    0.56250    0.14930    1.000
    H4       H        0.53390    0.57220    0.15240    1.000
    C6       C        0.43850    0.57820    0.19980    1.000
    H5       H        0.44750    0.60070    0.24260    1.000
    C7       C        0.37780    0.55570    0.17700    1.000
    N2       N        0.04364    0.96720    0.09650    1.000
    C8       C        0.18760    0.94140    0.21490    1.000
    C9       C        0.24800    0.93960    0.17990    1.000
    H6       H        0.24730    0.93770    0.13080    1.000
    C10      C        0.31310    0.94030    0.21540    1.000
    H7       H        0.35550    0.94010    0.19050    1.000
    C11      C        0.11160    0.97250    0.11340    1.000
    H8       H        0.14640    0.99270    0.08510    1.000
    C12      C        0.01420    0.93750    0.14930    1.000
    H9       H        0.96610    0.92780    0.15240    1.000
    C13      C        0.06150    0.92180    0.19980    1.000
    H10      H        0.05250    0.89930    0.24260    1.000
    C14      C        0.12220    0.94430    0.17700    1.000
    N3       N        0.04364    0.53280    0.40350    1.000
    C15      C        0.18760    0.55860    0.28510    1.000
    C16      C        0.24800    0.56040    0.32010    1.000
    H11      H        0.24730    0.56230    0.36920    1.000
    C17      C        0.31310    0.55970    0.28460    1.000
    H12      H        0.35550    0.55990    0.30950    1.000
    C18      C        0.11160    0.52750    0.38660    1.000
    H13      H        0.14640    0.50730    0.41490    1.000
    C19      C        0.01420    0.56250    0.35070    1.000
    H14      H        0.96610    0.57220    0.34760    1.000
    C20      C        0.06150    0.57820    0.30020    1.000
    H15      H        0.05250    0.60070    0.25740    1.000
    C21      C        0.12220    0.55570    0.32300    1.000
    N4       N        0.45636    0.96720    0.40350    1.000
    C22      C        0.31240    0.94140    0.28510    1.000
    C23      C        0.25200    0.93960    0.32010    1.000
    H16      H        0.25270    0.93770    0.36920    1.000
    C24      C        0.18690    0.94030    0.28460    1.000
    H17      H        0.14450    0.94010    0.30950    1.000
    C25      C        0.38840    0.97250    0.38660    1.000
    H18      H        0.35360    0.99270    0.41490    1.000
    C26      C        0.48580    0.93750    0.35070    1.000
    H19      H        0.53390    0.92780    0.34760    1.000
    C27      C        0.43850    0.92180    0.30020    1.000
    H20      H        0.44750    0.89930    0.25740    1.000
    C28      C        0.37780    0.94430    0.32300    1.000
    N5       N        0.09650    0.45636    0.53280    1.000
    C29      C        0.21490    0.31240    0.55860    1.000
    C30      C        0.17990    0.25200    0.56040    1.000
    H21      H        0.13080    0.25270    0.56230    1.000
    C31      C        0.21540    0.18690    0.55970    1.000
    H22      H        0.19050    0.14450    0.55990    1.000
    C32      C        0.11340    0.38840    0.52750    1.000
    H23      H        0.08510    0.35360    0.50730    1.000
    C33      C        0.14930    0.48580    0.56250    1.000
    H24      H        0.15240    0.53390    0.57220    1.000
    C34      C        0.19980    0.43850    0.57820    1.000
    H25      H        0.24260    0.44750    0.60070    1.000
    C35      C        0.17700    0.37780    0.55570    1.000
    N6       N        0.09650    0.04364    0.96720    1.000
    C36      C        0.21490    0.18760    0.94140    1.000
    C37      C        0.17990    0.24800    0.93960    1.000
    H26      H        0.13080    0.24730    0.93770    1.000
    C38      C        0.21540    0.31310    0.94030    1.000
    H27      H        0.19050    0.35550    0.94010    1.000
    C39      C        0.11340    0.11160    0.97250    1.000
    H28      H        0.08510    0.14640    0.99270    1.000
    C40      C        0.14930    0.01420    0.93750    1.000
    H29      H        0.15240    0.96610    0.92780    1.000
    C41      C        0.19980    0.06150    0.92180    1.000
    H30      H        0.24260    0.05250    0.89930    1.000
    C42      C        0.17700    0.12220    0.94430    1.000
    N7       N        0.40350    0.04364    0.53280    1.000
    C43      C        0.28510    0.18760    0.55860    1.000
    C44      C        0.32010    0.24800    0.56040    1.000
    H31      H        0.36920    0.24730    0.56230    1.000
    C45      C        0.28460    0.31310    0.55970    1.000
    H32      H        0.30950    0.35550    0.55990    1.000
    C46      C        0.38660    0.11160    0.52750    1.000
    H33      H        0.41490    0.14640    0.50730    1.000
    C47      C        0.35070    0.01420    0.56250    1.000
    H34      H        0.34760    0.96610    0.57220    1.000
    C48      C        0.30020    0.06150    0.57820    1.000
    H35      H        0.25740    0.05250    0.60070    1.000
    C49      C        0.32300    0.12220    0.55570    1.000
    N8       N        0.40350    0.45636    0.96720    1.000
    C50      C        0.28510    0.31240    0.94140    1.000
    C51      C        0.32010    0.25200    0.93960    1.000
    H36      H        0.36920    0.25270    0.93770    1.000
    C52      C        0.28460    0.18690    0.94030    1.000
    H37      H        0.30950    0.14450    0.94010    1.000
    C53      C        0.38660    0.38840    0.97250    1.000
    H38      H        0.41490    0.35360    0.99270    1.000
    C54      C        0.35070    0.48580    0.93750    1.000
    H39      H        0.34760    0.53390    0.92780    1.000
    C55      C        0.30020    0.43850    0.92180    1.000
    H40      H        0.25740    0.44750    0.89930    1.000
    C56      C        0.32300    0.37780    0.94430    1.000
    N9       N        0.53280    0.09650    0.45636    1.000
    C57      C        0.55860    0.21490    0.31240    1.000
    C58      C        0.56040    0.17990    0.25200    1.000
    H41      H        0.56230    0.13080    0.25270    1.000
    C59      C        0.55970    0.21540    0.18690    1.000
    H42      H        0.55990    0.19050    0.14450    1.000
    C60      C        0.52750    0.11340    0.38840    1.000
    H43      H        0.50730    0.08510    0.35360    1.000
    C61      C        0.56250    0.14930    0.48580    1.000
    H44      H        0.57220    0.15240    0.53390    1.000
    C62      C        0.57820    0.19980    0.43850    1.000
    H45      H        0.60070    0.24260    0.44750    1.000
    C63      C        0.55570    0.17700    0.37780    1.000
    N10      N        0.96720    0.09650    0.04364    1.000
    C64      C        0.94140    0.21490    0.18760    1.000
    C65      C        0.93960    0.17990    0.24800    1.000
    H46      H        0.93770    0.13080    0.24730    1.000
    C66      C        0.94030    0.21540    0.31310    1.000
    H47      H        0.94010    0.19050    0.35550    1.000
    C67      C        0.97250    0.11340    0.11160    1.000
    H48      H        0.99270    0.08510    0.14640    1.000
    C68      C        0.93750    0.14930    0.01420    1.000
    H49      H        0.92780    0.15240    0.96610    1.000
    C69      C        0.92180    0.19980    0.06150    1.000
    H50      H        0.89930    0.24260    0.05250    1.000
    C70      C        0.94430    0.17700    0.12220    1.000
    N11      N        0.53280    0.40350    0.04364    1.000
    C71      C        0.55860    0.28510    0.18760    1.000
    C72      C        0.56040    0.32010    0.24800    1.000
    H51      H        0.56230    0.36920    0.24730    1.000
    C73      C        0.55970    0.28460    0.31310    1.000
    H52      H        0.55990    0.30950    0.35550    1.000
    C74      C        0.52750    0.38660    0.11160    1.000
    H53      H        0.50730    0.41490    0.14640    1.000
    C75      C        0.56250    0.35070    0.01420    1.000
    H54      H        0.57220    0.34760    0.96610    1.000
    C76      C        0.57820    0.30020    0.06150    1.000
    H55      H        0.60070    0.25740    0.05250    1.000
    C77      C        0.55570    0.32300    0.12220    1.000
    N12      N        0.96720    0.40350    0.45636    1.000
    C78      C        0.94140    0.28510    0.31240    1.000
    C79      C        0.93960    0.32010    0.25200    1.000
    H56      H        0.93770    0.36920    0.25270    1.000
    C80      C        0.94030    0.28460    0.18690    1.000
    H57      H        0.94010    0.30950    0.14450    1.000
    C81      C        0.97250    0.38660    0.38840    1.000
    H58      H        0.99270    0.41490    0.35360    1.000
    C82      C        0.93750    0.35070    0.48580    1.000
    H59      H        0.92780    0.34760    0.53390    1.000
    C83      C        0.92180    0.30020    0.43850    1.000
    H60      H        0.89930    0.25740    0.44750    1.000
    C84      C        0.94430    0.32300    0.37780    1.000
    N13      N        0.54364    0.46720    0.90350    1.000
    C85      C        0.68760    0.44140    0.78510    1.000
    C86      C        0.74800    0.43960    0.82010    1.000
    H61      H        0.74730    0.43770    0.86920    1.000
    C87      C        0.81310    0.44030    0.78460    1.000
    H62      H        0.85550    0.44010    0.80950    1.000
    C88      C        0.61160    0.47250    0.88660    1.000
    H63      H        0.64640    0.49270    0.91490    1.000
    C89      C        0.51420    0.43750    0.85070    1.000
    H64      H        0.46610    0.42780    0.84760    1.000
    C90      C        0.56150    0.42180    0.80020    1.000
    H65      H        0.55250    0.39930    0.75740    1.000
    C91      C        0.62220    0.44430    0.82300    1.000
    N14      N        0.95636    0.03280    0.90350    1.000
    C92      C        0.81240    0.05860    0.78510    1.000
    C93      C        0.75200    0.06040    0.82010    1.000
    H66      H        0.75270    0.06230    0.86920    1.000
    C94      C        0.68690    0.05970    0.78460    1.000
    H67      H        0.64450    0.05990    0.80950    1.000
    C95      C        0.88840    0.02750    0.88660    1.000
    H68      H        0.85360    0.00730    0.91490    1.000
    C96      C        0.98580    0.06250    0.85070    1.000
    H69      H        0.03390    0.07220    0.84760    1.000
    C97      C        0.93850    0.07820    0.80020    1.000
    H70      H        0.94750    0.10070    0.75740    1.000
    C98      C        0.87780    0.05570    0.82300    1.000
    N15      N        0.95636    0.46720    0.59650    1.000
    C99      C        0.81240    0.44140    0.71490    1.000
    C100     C        0.75200    0.43960    0.67990    1.000
    H71      H        0.75270    0.43770    0.63080    1.000
    C101     C        0.68690    0.44030    0.71540    1.000
    H72      H        0.64450    0.44010    0.69050    1.000
    C102     C        0.88840    0.47250    0.61340    1.000
    H73      H        0.85360    0.49270    0.58510    1.000
    C103     C        0.98580    0.43750    0.64930    1.000
    H74      H        0.03390    0.42780    0.65240    1.000
    C104     C        0.93850    0.42180    0.69980    1.000
    H75      H        0.94750    0.39930    0.74260    1.000
    C105     C        0.87780    0.44430    0.67700    1.000
    N16      N        0.54364    0.03280    0.59650    1.000
    C106     C        0.68760    0.05860    0.71490    1.000
    C107     C        0.74800    0.06040    0.67990    1.000
    H76      H        0.74730    0.06230    0.63080    1.000
    C108     C        0.81310    0.05970    0.71540    1.000
    H77      H        0.85550    0.05990    0.69050    1.000
    C109     C        0.61160    0.02750    0.61340    1.000
    H78      H        0.64640    0.00730    0.58510    1.000
    C110     C        0.51420    0.06250    0.64930    1.000
    H79      H        0.46610    0.07220    0.65240    1.000
    C111     C        0.56150    0.07820    0.69980    1.000
    H80      H        0.55250    0.10070    0.74260    1.000
    C112     C        0.62220    0.05570    0.67700    1.000
    N17      N        0.90350    0.54364    0.46720    1.000
    C113     C        0.78510    0.68760    0.44140    1.000
    C114     C        0.82010    0.74800    0.43960    1.000
    H81      H        0.86920    0.74730    0.43770    1.000
    C115     C        0.78460    0.81310    0.44030    1.000
    H82      H        0.80950    0.85550    0.44010    1.000
    C116     C        0.88660    0.61160    0.47250    1.000
    H83      H        0.91490    0.64640    0.49270    1.000
    C117     C        0.85070    0.51420    0.43750    1.000
    H84      H        0.84760    0.46610    0.42780    1.000
    C118     C        0.80020    0.56150    0.42180    1.000
    H85      H        0.75740    0.55250    0.39930    1.000
    C119     C        0.82300    0.62220    0.44430    1.000
    N18      N        0.90350    0.95636    0.03280    1.000
    C120     C        0.78510    0.81240    0.05860    1.000
    C121     C        0.82010    0.75200    0.06040    1.000
    H86      H        0.86920    0.75270    0.06230    1.000
    C122     C        0.78460    0.68690    0.05970    1.000
    H87      H        0.80950    0.64450    0.05990    1.000
    C123     C        0.88660    0.88840    0.02750    1.000
    H88      H        0.91490    0.85360    0.00730    1.000
    C124     C        0.85070    0.98580    0.06250    1.000
    H89      H        0.84760    0.03390    0.07220    1.000
    C125     C        0.80020    0.93850    0.07820    1.000
    H90      H        0.75740    0.94750    0.10070    1.000
    C126     C        0.82300    0.87780    0.05570    1.000
    N19      N        0.59650    0.95636    0.46720    1.000
    C127     C        0.71490    0.81240    0.44140    1.000
    C128     C        0.67990    0.75200    0.43960    1.000
    H91      H        0.63080    0.75270    0.43770    1.000
    C129     C        0.71540    0.68690    0.44030    1.000
    H92      H        0.69050    0.64450    0.44010    1.000
    C130     C        0.61340    0.88840    0.47250    1.000
    H93      H        0.58510    0.85360    0.49270    1.000
    C131     C        0.64930    0.98580    0.43750    1.000
    H94      H        0.65240    0.03390    0.42780    1.000
    C132     C        0.69980    0.93850    0.42180    1.000
    H95      H        0.74260    0.94750    0.39930    1.000
    C133     C        0.67700    0.87780    0.44430    1.000
    N20      N        0.59650    0.54364    0.03280    1.000
    C134     C        0.71490    0.68760    0.05860    1.000
    C135     C        0.67990    0.74800    0.06040    1.000
    H96      H        0.63080    0.74730    0.06230    1.000
    C136     C        0.71540    0.81310    0.05970    1.000
    H97      H        0.69050    0.85550    0.05990    1.000
    C137     C        0.61340    0.61160    0.02750    1.000
    H98      H        0.58510    0.64640    0.00730    1.000
    C138     C        0.64930    0.51420    0.06250    1.000
    H99      H        0.65240    0.46610    0.07220    1.000
    C139     C        0.69980    0.56150    0.07820    1.000
    H100     H        0.74260    0.55250    0.10070    1.000
    C140     C        0.67700    0.62220    0.05570    1.000
    N21      N        0.46720    0.90350    0.54364    1.000
    C141     C        0.44140    0.78510    0.68760    1.000
    C142     C        0.43960    0.82010    0.74800    1.000
    H101     H        0.43770    0.86920    0.74730    1.000
    C143     C        0.44030    0.78460    0.81310    1.000
    H102     H        0.44010    0.80950    0.85550    1.000
    C144     C        0.47250    0.88660    0.61160    1.000
    H103     H        0.49270    0.91490    0.64640    1.000
    C145     C        0.43750    0.85070    0.51420    1.000
    H104     H        0.42780    0.84760    0.46610    1.000
    C146     C        0.42180    0.80020    0.56150    1.000
    H105     H        0.39930    0.75740    0.55250    1.000
    C147     C        0.44430    0.82300    0.62220    1.000
    N22      N        0.03280    0.90350    0.95636    1.000
    C148     C        0.05860    0.78510    0.81240    1.000
    C149     C        0.06040    0.82010    0.75200    1.000
    H106     H        0.06230    0.86920    0.75270    1.000
    C150     C        0.05970    0.78460    0.68690    1.000
    H107     H        0.05990    0.80950    0.64450    1.000
    C151     C        0.02750    0.88660    0.88840    1.000
    H108     H        0.00730    0.91490    0.85360    1.000
    C152     C        0.06250    0.85070    0.98580    1.000
    H109     H        0.07220    0.84760    0.03390    1.000
    C153     C        0.07820    0.80020    0.93850    1.000
    H110     H        0.10070    0.75740    0.94750    1.000
    C154     C        0.05570    0.82300    0.87780    1.000
    N23      N        0.46720    0.59650    0.95636    1.000
    C155     C        0.44140    0.71490    0.81240    1.000
    C156     C        0.43960    0.67990    0.75200    1.000
    H111     H        0.43770    0.63080    0.75270    1.000
    C157     C        0.44030    0.71540    0.68690    1.000
    H112     H        0.44010    0.69050    0.64450    1.000
    C158     C        0.47250    0.61340    0.88840    1.000
    H113     H        0.49270    0.58510    0.85360    1.000
    C159     C        0.43750    0.64930    0.98580    1.000
    H114     H        0.42780    0.65240    0.03390    1.000
    C160     C        0.42180    0.69980    0.93850    1.000
    H115     H        0.39930    0.74260    0.94750    1.000
    C161     C        0.44430    0.67700    0.87780    1.000
    N24      N        0.03280    0.59650    0.54364    1.000
    C162     C        0.05860    0.71490    0.68760    1.000
    C163     C        0.06040    0.67990    0.74800    1.000
    H116     H        0.06230    0.63080    0.74730    1.000
    C164     C        0.05970    0.71540    0.81310    1.000
    H117     H        0.05990    0.69050    0.85550    1.000
    C165     C        0.02750    0.61340    0.61160    1.000
    H118     H        0.00730    0.58510    0.64640    1.000
    C166     C        0.06250    0.64930    0.51420    1.000
    H119     H        0.07220    0.65240    0.46610    1.000
    C167     C        0.07820    0.69980    0.56150    1.000
    H120     H        0.10070    0.74260    0.55250    1.000
    C168     C        0.05570    0.67700    0.62220    1.000
    Co1      Co       0.50000    0.50000    0.00000    1.000
    Co2      Co       0.00000    0.00000    0.00000    1.000
    Co3      Co       0.00000    0.50000    0.50000    1.000
    Co4      Co       0.50000    0.00000    0.50000    1.000
