# CIF file generated by openbabel 3.1.0, see https://openbabel.org
data_I
_chemical_name_common 'image0'
_cell_length_a 20.425
_cell_length_b 20.425
_cell_length_c 20.425
_cell_angle_alpha 90
_cell_angle_beta 90
_cell_angle_gamma 90
_space_group_name_H-M_alt 'P 1'
_space_group_name_Hall 'P 1'
loop_
    _symmetry_equiv_pos_as_xyz
    x,y,z
loop_
    _atom_site_label
    _atom_site_type_symbol
    _atom_site_fract_x
    _atom_site_fract_y
    _atom_site_fract_z
    _atom_site_occupancy
    O1       O        0.13320    0.80840    0.24500    1.000
    O2       O        0.06250    0.88220    0.21440    1.000
    N1       N        0.99920    0.65560    0.00920    1.000
    H1       H        0.96330    0.67030    0.99070    1.000
    N2       N        0.99150    0.57800    0.92940    1.000
    C1       C        0.08760    0.82800    0.20900    1.000
    C2       C        0.06610    0.78140    0.15610    1.000
    C3       C        0.01730    0.79740    0.11400    1.000
    H2       H        0.99780    0.83950    0.11710    1.000
    C4       C        0.99530    0.75500    0.06750    1.000
    H3       H        0.96060    0.76770    0.03930    1.000
    C5       C        0.02380    0.69220    0.06070    1.000
    C6       C        0.07430    0.67660    0.10370    1.000
    H4       H        0.09520    0.63520    0.10030    1.000
    C7       C        0.09390    0.71890    0.14990    1.000
    H5       H        0.12760    0.70620    0.17940    1.000
    C8       C        0.02520    0.59790    0.98350    1.000
    O3       O        0.36680    0.19160    0.74500    1.000
    O4       O        0.43750    0.11780    0.71440    1.000
    N3       N        0.50080    0.34440    0.50920    1.000
    H6       H        0.53670    0.32970    0.49070    1.000
    N4       N        0.50850    0.42200    0.42940    1.000
    C9       C        0.41240    0.17200    0.70900    1.000
    C10      C        0.43390    0.21860    0.65610    1.000
    C11      C        0.48270    0.20260    0.61400    1.000
    H7       H        0.50220    0.16050    0.61710    1.000
    C12      C        0.50470    0.24500    0.56750    1.000
    H8       H        0.53940    0.23230    0.53930    1.000
    C13      C        0.47620    0.30780    0.56070    1.000
    C14      C        0.42570    0.32340    0.60370    1.000
    H9       H        0.40480    0.36480    0.60030    1.000
    C15      C        0.40610    0.28110    0.64990    1.000
    H10      H        0.37240    0.29380    0.67940    1.000
    C16      C        0.47480    0.40210    0.48350    1.000
    O5       O        0.86680    0.30840    0.25500    1.000
    O6       O        0.93750    0.38220    0.28560    1.000
    N5       N        0.00080    0.15560    0.49080    1.000
    H11      H        0.03670    0.17030    0.50930    1.000
    N6       N        0.00850    0.07800    0.57060    1.000
    C17      C        0.91240    0.32800    0.29100    1.000
    C18      C        0.93390    0.28140    0.34390    1.000
    C19      C        0.98270    0.29740    0.38600    1.000
    H12      H        0.00220    0.33950    0.38290    1.000
    C20      C        0.00470    0.25500    0.43250    1.000
    H13      H        0.03940    0.26770    0.46070    1.000
    C21      C        0.97620    0.19220    0.43930    1.000
    C22      C        0.92570    0.17660    0.39630    1.000
    H14      H        0.90480    0.13520    0.39970    1.000
    C23      C        0.90610    0.21890    0.35010    1.000
    H15      H        0.87240    0.20620    0.32060    1.000
    C24      C        0.97480    0.09790    0.51650    1.000
    O7       O        0.63320    0.69160    0.75500    1.000
    O8       O        0.56250    0.61780    0.78560    1.000
    N7       N        0.49920    0.84440    0.99080    1.000
    H16      H        0.46330    0.82970    0.00930    1.000
    N8       N        0.49150    0.92200    0.07060    1.000
    C25      C        0.58760    0.67200    0.79100    1.000
    C26      C        0.56610    0.71860    0.84390    1.000
    C27      C        0.51730    0.70260    0.88600    1.000
    H17      H        0.49780    0.66050    0.88290    1.000
    C28      C        0.49530    0.74500    0.93250    1.000
    H18      H        0.46060    0.73230    0.96070    1.000
    C29      C        0.52380    0.80780    0.93930    1.000
    C30      C        0.57430    0.82340    0.89630    1.000
    H19      H        0.59520    0.86480    0.89970    1.000
    C31      C        0.59390    0.78110    0.85010    1.000
    H20      H        0.62760    0.79380    0.82060    1.000
    C32      C        0.52520    0.90210    0.01650    1.000
    O9       O        0.24500    0.13320    0.80840    1.000
    O10      O        0.21440    0.06250    0.88220    1.000
    N9       N        0.00920    0.99920    0.65560    1.000
    H21      H        0.99070    0.96330    0.67030    1.000
    N10      N        0.92940    0.99150    0.57800    1.000
    C33      C        0.20900    0.08760    0.82800    1.000
    C34      C        0.15610    0.06610    0.78140    1.000
    C35      C        0.11400    0.01730    0.79740    1.000
    H22      H        0.11710    0.99780    0.83950    1.000
    C36      C        0.06750    0.99530    0.75500    1.000
    H23      H        0.03930    0.96060    0.76770    1.000
    C37      C        0.06070    0.02380    0.69220    1.000
    C38      C        0.10370    0.07430    0.67660    1.000
    H24      H        0.10030    0.09520    0.63520    1.000
    C39      C        0.14990    0.09390    0.71890    1.000
    H25      H        0.17940    0.12760    0.70620    1.000
    C40      C        0.98350    0.02520    0.59790    1.000
    O11      O        0.74500    0.36680    0.19160    1.000
    O12      O        0.71440    0.43750    0.11780    1.000
    N11      N        0.50920    0.50080    0.34440    1.000
    H26      H        0.49070    0.53670    0.32970    1.000
    N12      N        0.42940    0.50850    0.42200    1.000
    C41      C        0.70900    0.41240    0.17200    1.000
    C42      C        0.65610    0.43390    0.21860    1.000
    C43      C        0.61400    0.48270    0.20260    1.000
    H27      H        0.61710    0.50220    0.16050    1.000
    C44      C        0.56750    0.50470    0.24500    1.000
    H28      H        0.53930    0.53940    0.23230    1.000
    C45      C        0.56070    0.47620    0.30780    1.000
    C46      C        0.60370    0.42570    0.32340    1.000
    H29      H        0.60030    0.40480    0.36480    1.000
    C47      C        0.64990    0.40610    0.28110    1.000
    H30      H        0.67940    0.37240    0.29380    1.000
    C48      C        0.48350    0.47480    0.40210    1.000
    O13      O        0.25500    0.86680    0.30840    1.000
    O14      O        0.28560    0.93750    0.38220    1.000
    N13      N        0.49080    0.00080    0.15560    1.000
    H31      H        0.50930    0.03670    0.17030    1.000
    N14      N        0.57060    0.00850    0.07800    1.000
    C49      C        0.29100    0.91240    0.32800    1.000
    C50      C        0.34390    0.93390    0.28140    1.000
    C51      C        0.38600    0.98270    0.29740    1.000
    H32      H        0.38290    0.00220    0.33950    1.000
    C52      C        0.43250    0.00470    0.25500    1.000
    H33      H        0.46070    0.03940    0.26770    1.000
    C53      C        0.43930    0.97620    0.19220    1.000
    C54      C        0.39630    0.92570    0.17660    1.000
    H34      H        0.39970    0.90480    0.13520    1.000
    C55      C        0.35010    0.90610    0.21890    1.000
    H35      H        0.32060    0.87240    0.20620    1.000
    C56      C        0.51650    0.97480    0.09790    1.000
    O15      O        0.75500    0.63320    0.69160    1.000
    O16      O        0.78560    0.56250    0.61780    1.000
    N15      N        0.99080    0.49920    0.84440    1.000
    H36      H        0.00930    0.46330    0.82970    1.000
    N16      N        0.07060    0.49150    0.92200    1.000
    C57      C        0.79100    0.58760    0.67200    1.000
    C58      C        0.84390    0.56610    0.71860    1.000
    C59      C        0.88600    0.51730    0.70260    1.000
    H37      H        0.88290    0.49780    0.66050    1.000
    C60      C        0.93250    0.49530    0.74500    1.000
    H38      H        0.96070    0.46060    0.73230    1.000
    C61      C        0.93930    0.52380    0.80780    1.000
    C62      C        0.89630    0.57430    0.82340    1.000
    H39      H        0.89970    0.59520    0.86480    1.000
    C63      C        0.85010    0.59390    0.78110    1.000
    H40      H        0.82060    0.62760    0.79380    1.000
    C64      C        0.01650    0.52520    0.90210    1.000
    O17      O        0.80840    0.24500    0.13320    1.000
    O18      O        0.88220    0.21440    0.06250    1.000
    N17      N        0.65560    0.00920    0.99920    1.000
    H41      H        0.67030    0.99070    0.96330    1.000
    N18      N        0.57800    0.92940    0.99150    1.000
    C65      C        0.82800    0.20900    0.08760    1.000
    C66      C        0.78140    0.15610    0.06610    1.000
    C67      C        0.79740    0.11400    0.01730    1.000
    H42      H        0.83950    0.11710    0.99780    1.000
    C68      C        0.75500    0.06750    0.99530    1.000
    H43      H        0.76770    0.03930    0.96060    1.000
    C69      C        0.69220    0.06070    0.02380    1.000
    C70      C        0.67660    0.10370    0.07430    1.000
    H44      H        0.63520    0.10030    0.09520    1.000
    C71      C        0.71890    0.14990    0.09390    1.000
    H45      H        0.70620    0.17940    0.12760    1.000
    C72      C        0.59790    0.98350    0.02520    1.000
    O19      O        0.19160    0.74500    0.36680    1.000
    O20      O        0.11780    0.71440    0.43750    1.000
    N19      N        0.34440    0.50920    0.50080    1.000
    H46      H        0.32970    0.49070    0.53670    1.000
    N20      N        0.42200    0.42940    0.50850    1.000
    C73      C        0.17200    0.70900    0.41240    1.000
    C74      C        0.21860    0.65610    0.43390    1.000
    C75      C        0.20260    0.61400    0.48270    1.000
    H47      H        0.16050    0.61710    0.50220    1.000
    C76      C        0.24500    0.56750    0.50470    1.000
    H48      H        0.23230    0.53930    0.53940    1.000
    C77      C        0.30780    0.56070    0.47620    1.000
    C78      C        0.32340    0.60370    0.42570    1.000
    H49      H        0.36480    0.60030    0.40480    1.000
    C79      C        0.28110    0.64990    0.40610    1.000
    H50      H        0.29380    0.67940    0.37240    1.000
    C80      C        0.40210    0.48350    0.47480    1.000
    O21      O        0.30840    0.25500    0.86680    1.000
    O22      O        0.38220    0.28560    0.93750    1.000
    N21      N        0.15560    0.49080    0.00080    1.000
    H51      H        0.17030    0.50930    0.03670    1.000
    N22      N        0.07800    0.57060    0.00850    1.000
    C81      C        0.32800    0.29100    0.91240    1.000
    C82      C        0.28140    0.34390    0.93390    1.000
    C83      C        0.29740    0.38600    0.98270    1.000
    H52      H        0.33950    0.38290    0.00220    1.000
    C84      C        0.25500    0.43250    0.00470    1.000
    H53      H        0.26770    0.46070    0.03940    1.000
    C85      C        0.19220    0.43930    0.97620    1.000
    C86      C        0.17660    0.39630    0.92570    1.000
    H54      H        0.13520    0.39970    0.90480    1.000
    C87      C        0.21890    0.35010    0.90610    1.000
    H55      H        0.20620    0.32060    0.87240    1.000
    C88      C        0.09790    0.51650    0.97480    1.000
    O23      O        0.69160    0.75500    0.63320    1.000
    O24      O        0.61780    0.78560    0.56250    1.000
    N23      N        0.84440    0.99080    0.49920    1.000
    H56      H        0.82970    0.00930    0.46330    1.000
    N24      N        0.92200    0.07060    0.49150    1.000
    C89      C        0.67200    0.79100    0.58760    1.000
    C90      C        0.71860    0.84390    0.56610    1.000
    C91      C        0.70260    0.88600    0.51730    1.000
    H57      H        0.66050    0.88290    0.49780    1.000
    C92      C        0.74500    0.93250    0.49530    1.000
    H58      H        0.73230    0.96070    0.46060    1.000
    C93      C        0.80780    0.93930    0.52380    1.000
    C94      C        0.82340    0.89630    0.57430    1.000
    H59      H        0.86480    0.89970    0.59520    1.000
    C95      C        0.78110    0.85010    0.59390    1.000
    H60      H        0.79380    0.82060    0.62760    1.000
    C96      C        0.90210    0.01650    0.52520    1.000
    Gd1      Gd       0.15252    0.84748    0.34748    1.000
    Gd2      Gd       0.34748    0.15252    0.84748    1.000
    Gd3      Gd       0.84748    0.34748    0.15252    1.000
    Gd4      Gd       0.65252    0.65252    0.65252    1.000
    O25      O        0.23550    0.61720    0.17880    1.000
    O26      O        0.20990    0.53200    0.11560    1.000
    N25      N        0.00620    0.49160    0.34850    1.000
    H61      H        0.98690    0.45480    0.33710    1.000
    N26      N        0.01040    0.57300    0.42770    1.000
    C97      C        0.20310    0.56550    0.16660    1.000
    C98      C        0.15250    0.54610    0.21510    1.000
    C99      C        0.14660    0.57890    0.27340    1.000
    H62      H        0.17580    0.61390    0.28270    1.000
    C100     C        0.09970    0.56270    0.31890    1.000
    H63      H        0.09640    0.58680    0.35850    1.000
    C101     C        0.05720    0.51080    0.30660    1.000
    C102     C        0.06240    0.47800    0.24680    1.000
    H64      H        0.03300    0.44340    0.23670    1.000
    C103     C        0.10970    0.49540    0.20300    1.000
    H65      H        0.11320    0.47200    0.16300    1.000
    C104     C        0.98200    0.51910    0.40250    1.000
    O27      O        0.26450    0.38280    0.67880    1.000
    O28      O        0.29010    0.46800    0.61560    1.000
    N27      N        0.49380    0.50840    0.84850    1.000
    H66      H        0.51310    0.54520    0.83710    1.000
    N28      N        0.48960    0.42700    0.92770    1.000
    C105     C        0.29690    0.43450    0.66660    1.000
    C106     C        0.34750    0.45390    0.71510    1.000
    C107     C        0.35340    0.42110    0.77340    1.000
    H67      H        0.32420    0.38610    0.78270    1.000
    C108     C        0.40030    0.43730    0.81890    1.000
    H68      H        0.40360    0.41320    0.85850    1.000
    C109     C        0.44280    0.48920    0.80660    1.000
    C110     C        0.43760    0.52200    0.74680    1.000
    H69      H        0.46700    0.55660    0.73670    1.000
    C111     C        0.39030    0.50460    0.70300    1.000
    H70      H        0.38680    0.52800    0.66300    1.000
    C112     C        0.51800    0.48090    0.90250    1.000
    O29      O        0.76450    0.11720    0.32120    1.000
    O30      O        0.79010    0.03200    0.38440    1.000
    N29      N        0.99380    0.99160    0.15150    1.000
    H71      H        0.01310    0.95480    0.16290    1.000
    N30      N        0.98960    0.07300    0.07230    1.000
    C113     C        0.79690    0.06550    0.33340    1.000
    C114     C        0.84750    0.04610    0.28490    1.000
    C115     C        0.85340    0.07890    0.22660    1.000
    H72      H        0.82420    0.11390    0.21730    1.000
    C116     C        0.90030    0.06270    0.18110    1.000
    H73      H        0.90360    0.08680    0.14150    1.000
    C117     C        0.94280    0.01080    0.19340    1.000
    C118     C        0.93760    0.97800    0.25320    1.000
    H74      H        0.96700    0.94340    0.26330    1.000
    C119     C        0.89030    0.99540    0.29700    1.000
    H75      H        0.88680    0.97200    0.33700    1.000
    C120     C        0.01800    0.01910    0.09750    1.000
    O31      O        0.73550    0.88280    0.82120    1.000
    O32      O        0.70990    0.96800    0.88440    1.000
    N31      N        0.50620    0.00840    0.65150    1.000
    H76      H        0.48690    0.04520    0.66290    1.000
    N32      N        0.51040    0.92700    0.57230    1.000
    C121     C        0.70310    0.93450    0.83340    1.000
    C122     C        0.65250    0.95390    0.78490    1.000
    C123     C        0.64660    0.92110    0.72660    1.000
    H77      H        0.67580    0.88610    0.71730    1.000
    C124     C        0.59970    0.93730    0.68110    1.000
    H78      H        0.59640    0.91320    0.64150    1.000
    C125     C        0.55720    0.98920    0.69340    1.000
    C126     C        0.56240    0.02200    0.75320    1.000
    H79      H        0.53300    0.05660    0.76330    1.000
    C127     C        0.60970    0.00460    0.79700    1.000
    H80      H        0.61320    0.02800    0.83700    1.000
    C128     C        0.48200    0.98090    0.59750    1.000
    O33      O        0.17880    0.23550    0.61720    1.000
    O34      O        0.11560    0.20990    0.53200    1.000
    N33      N        0.34850    0.00620    0.49160    1.000
    H81      H        0.33710    0.98690    0.45480    1.000
    N34      N        0.42770    0.01040    0.57300    1.000
    C129     C        0.16660    0.20310    0.56550    1.000
    C130     C        0.21510    0.15250    0.54610    1.000
    C131     C        0.27340    0.14660    0.57890    1.000
    H82      H        0.28270    0.17580    0.61390    1.000
    C132     C        0.31890    0.09970    0.56270    1.000
    H83      H        0.35850    0.09640    0.58680    1.000
    C133     C        0.30660    0.05720    0.51080    1.000
    C134     C        0.24680    0.06240    0.47800    1.000
    H84      H        0.23670    0.03300    0.44340    1.000
    C135     C        0.20300    0.10970    0.49540    1.000
    H85      H        0.16300    0.11320    0.47200    1.000
    C136     C        0.40250    0.98200    0.51910    1.000
    O35      O        0.67880    0.26450    0.38280    1.000
    O36      O        0.61560    0.29010    0.46800    1.000
    N35      N        0.84850    0.49380    0.50840    1.000
    H86      H        0.83710    0.51310    0.54520    1.000
    N36      N        0.92770    0.48960    0.42700    1.000
    C137     C        0.66660    0.29690    0.43450    1.000
    C138     C        0.71510    0.34750    0.45390    1.000
    C139     C        0.77340    0.35340    0.42110    1.000
    H87      H        0.78270    0.32420    0.38610    1.000
    C140     C        0.81890    0.40030    0.43730    1.000
    H88      H        0.85850    0.40360    0.41320    1.000
    C141     C        0.80660    0.44280    0.48920    1.000
    C142     C        0.74680    0.43760    0.52200    1.000
    H89      H        0.73670    0.46700    0.55660    1.000
    C143     C        0.70300    0.39030    0.50460    1.000
    H90      H        0.66300    0.38680    0.52800    1.000
    C144     C        0.90250    0.51800    0.48090    1.000
    O37      O        0.32120    0.76450    0.11720    1.000
    O38      O        0.38440    0.79010    0.03200    1.000
    N37      N        0.15150    0.99380    0.99160    1.000
    H91      H        0.16290    0.01310    0.95480    1.000
    N38      N        0.07230    0.98960    0.07300    1.000
    C145     C        0.33340    0.79690    0.06550    1.000
    C146     C        0.28490    0.84750    0.04610    1.000
    C147     C        0.22660    0.85340    0.07890    1.000
    H92      H        0.21730    0.82420    0.11390    1.000
    C148     C        0.18110    0.90030    0.06270    1.000
    H93      H        0.14150    0.90360    0.08680    1.000
    C149     C        0.19340    0.94280    0.01080    1.000
    C150     C        0.25320    0.93760    0.97800    1.000
    H94      H        0.26330    0.96700    0.94340    1.000
    C151     C        0.29700    0.89030    0.99540    1.000
    H95      H        0.33700    0.88680    0.97200    1.000
    C152     C        0.09750    0.01800    0.01910    1.000
    O39      O        0.82120    0.73550    0.88280    1.000
    O40      O        0.88440    0.70990    0.96800    1.000
    N39      N        0.65150    0.50620    0.00840    1.000
    H96      H        0.66290    0.48690    0.04520    1.000
    N40      N        0.57230    0.51040    0.92700    1.000
    C153     C        0.83340    0.70310    0.93450    1.000
    C154     C        0.78490    0.65250    0.95390    1.000
    C155     C        0.72660    0.64660    0.92110    1.000
    H97      H        0.71730    0.67580    0.88610    1.000
    C156     C        0.68110    0.59970    0.93730    1.000
    H98      H        0.64150    0.59640    0.91320    1.000
    C157     C        0.69340    0.55720    0.98920    1.000
    C158     C        0.75320    0.56240    0.02200    1.000
    H99      H        0.76330    0.53300    0.05660    1.000
    C159     C        0.79700    0.60970    0.00460    1.000
    H100     H        0.83700    0.61320    0.02800    1.000
    C160     C        0.59750    0.48200    0.98090    1.000
    O41      O        0.61720    0.17880    0.23550    1.000
    O42      O        0.53200    0.11560    0.20990    1.000
    N41      N        0.49160    0.34850    0.00620    1.000
    H101     H        0.45480    0.33710    0.98690    1.000
    N42      N        0.57300    0.42770    0.01040    1.000
    C161     C        0.56550    0.16660    0.20310    1.000
    C162     C        0.54610    0.21510    0.15250    1.000
    C163     C        0.57890    0.27340    0.14660    1.000
    H102     H        0.61390    0.28270    0.17580    1.000
    C164     C        0.56270    0.31890    0.09970    1.000
    H103     H        0.58680    0.35850    0.09640    1.000
    C165     C        0.51080    0.30660    0.05720    1.000
    C166     C        0.47800    0.24680    0.06240    1.000
    H104     H        0.44340    0.23670    0.03300    1.000
    C167     C        0.49540    0.20300    0.10970    1.000
    H105     H        0.47200    0.16300    0.11320    1.000
    C168     C        0.51910    0.40250    0.98200    1.000
    O43      O        0.38280    0.67880    0.26450    1.000
    O44      O        0.46800    0.61560    0.29010    1.000
    N43      N        0.50840    0.84850    0.49380    1.000
    H106     H        0.54520    0.83710    0.51310    1.000
    N44      N        0.42700    0.92770    0.48960    1.000
    C169     C        0.43450    0.66660    0.29690    1.000
    C170     C        0.45390    0.71510    0.34750    1.000
    C171     C        0.42110    0.77340    0.35340    1.000
    H107     H        0.38610    0.78270    0.32420    1.000
    C172     C        0.43730    0.81890    0.40030    1.000
    H108     H        0.41320    0.85850    0.40360    1.000
    C173     C        0.48920    0.80660    0.44280    1.000
    C174     C        0.52200    0.74680    0.43760    1.000
    H109     H        0.55660    0.73670    0.46700    1.000
    C175     C        0.50460    0.70300    0.39030    1.000
    H110     H        0.52800    0.66300    0.38680    1.000
    C176     C        0.48090    0.90250    0.51800    1.000
    O45      O        0.11720    0.32120    0.76450    1.000
    O46      O        0.03200    0.38440    0.79010    1.000
    N45      N        0.99160    0.15150    0.99380    1.000
    H111     H        0.95480    0.16290    0.01310    1.000
    N46      N        0.07300    0.07230    0.98960    1.000
    C177     C        0.06550    0.33340    0.79690    1.000
    C178     C        0.04610    0.28490    0.84750    1.000
    C179     C        0.07890    0.22660    0.85340    1.000
    H112     H        0.11390    0.21730    0.82420    1.000
    C180     C        0.06270    0.18110    0.90030    1.000
    H113     H        0.08680    0.14150    0.90360    1.000
    C181     C        0.01080    0.19340    0.94280    1.000
    C182     C        0.97800    0.25320    0.93760    1.000
    H114     H        0.94340    0.26330    0.96700    1.000
    C183     C        0.99540    0.29700    0.89030    1.000
    H115     H        0.97200    0.33700    0.88680    1.000
    C184     C        0.01910    0.09750    0.01800    1.000
    O47      O        0.88280    0.82120    0.73550    1.000
    O48      O        0.96800    0.88440    0.70990    1.000
    N47      N        0.00840    0.65150    0.50620    1.000
    H116     H        0.04520    0.66290    0.48690    1.000
    N48      N        0.92700    0.57230    0.51040    1.000
    C185     C        0.93450    0.83340    0.70310    1.000
    C186     C        0.95390    0.78490    0.65250    1.000
    C187     C        0.92110    0.72660    0.64660    1.000
    H117     H        0.88610    0.71730    0.67580    1.000
    C188     C        0.93730    0.68110    0.59970    1.000
    H118     H        0.91320    0.64150    0.59640    1.000
    C189     C        0.98920    0.69340    0.55720    1.000
    C190     C        0.02200    0.75320    0.56240    1.000
    H119     H        0.05660    0.76330    0.53300    1.000
    C191     C        0.00460    0.79700    0.60970    1.000
    H120     H        0.02800    0.83700    0.61320    1.000
    C192     C        0.98090    0.59750    0.48200    1.000
    Gd5      Gd       0.33384    0.66616    0.16616    1.000
    Gd6      Gd       0.16616    0.33384    0.66616    1.000
    Gd7      Gd       0.66616    0.16616    0.33384    1.000
    Gd8      Gd       0.83384    0.83384    0.83384    1.000
