# CIF file generated by openbabel 3.1.0, see https://openbabel.org
data_I
_chemical_name_common 'image0'
_cell_length_a 14.46
_cell_length_b 13.063
_cell_length_c 22.054
_cell_angle_alpha 90
_cell_angle_beta 125.16
_cell_angle_gamma 90
_space_group_name_H-M_alt 'P 1'
_space_group_name_Hall 'P 1'
loop_
    _symmetry_equiv_pos_as_xyz
    x,y,z
loop_
    _atom_site_label
    _atom_site_type_symbol
    _atom_site_fract_x
    _atom_site_fract_y
    _atom_site_fract_z
    _atom_site_occupancy
    Mn1      Mn       0.22733    0.55772    0.72707    1.000
    Mn2      Mn       0.29507    0.72915    0.86879    1.000
    O1       O        0.23680    0.58910    0.88545    1.000
    O2       O        0.15520    0.50210    0.77930    1.000
    O3       O        0.85330    0.25940    0.74144    1.000
    O4       O        0.90290    0.16000    0.83760    1.000
    O5       O        0.20300    0.05690    0.14976    1.000
    O6       O        0.35690    0.08180    0.26108    1.000
    O7       O        0.64410    0.34350    0.28180    1.000
    O8       O        0.62870    0.36210    0.17728    1.000
    C1       C        0.18340    0.51410    0.84430    1.000
    C2       C        0.15130    0.42900    0.87480    1.000
    C3       C        0.22410    0.40240    0.94900    1.000
    H1       H        0.28830    0.44180    0.98030    1.000
    C4       C        0.20270    0.31750    0.97790    1.000
    C5       C        0.10170    0.26450    0.92990    1.000
    H2       H        0.08480    0.20820    0.94770    1.000
    C6       C        0.02560    0.29370    0.85600    1.000
    C7       C        0.91820    0.23340    0.80740    1.000
    C8       C        0.05190    0.37390    0.82790    1.000
    H3       H        0.00360    0.39110    0.77800    1.000
    C9       C        0.28430    0.28380    0.05540    1.000
    C10      C        0.39620    0.31840    0.09720    1.000
    H4       H        0.42030    0.36120    0.07520    1.000
    C11      C        0.47220    0.29010    0.17080    1.000
    C12      C        0.58840    0.33250    0.21320    1.000
    C13      C        0.43850    0.22480    0.20420    1.000
    H5       H        0.48840    0.20790    0.25410    1.000
    C14      C        0.32920    0.18430    0.16230    1.000
    C15      C        0.29510    0.10380    0.19390    1.000
    C16      C        0.25380    0.21560    0.08960    1.000
    H6       H        0.18030    0.19020    0.06260    1.000
    Mn3      Mn       0.77267    0.05772    0.77293    1.000
    Mn4      Mn       0.70493    0.22915    0.63121    1.000
    O9       O        0.76320    0.08910    0.61455    1.000
    O10      O        0.84480    0.00210    0.72070    1.000
    O11      O        0.14670    0.75940    0.75856    1.000
    O12      O        0.09710    0.66000    0.66240    1.000
    O13      O        0.79700    0.55690    0.35024    1.000
    O14      O        0.64310    0.58180    0.23892    1.000
    O15      O        0.35590    0.84350    0.21820    1.000
    O16      O        0.37130    0.86210    0.32272    1.000
    C17      C        0.81660    0.01410    0.65570    1.000
    C18      C        0.84870    0.92900    0.62520    1.000
    C19      C        0.77590    0.90240    0.55100    1.000
    H7       H        0.71170    0.94180    0.51970    1.000
    C20      C        0.79730    0.81750    0.52210    1.000
    C21      C        0.89830    0.76450    0.57010    1.000
    H8       H        0.91520    0.70820    0.55230    1.000
    C22      C        0.97440    0.79370    0.64400    1.000
    C23      C        0.08180    0.73340    0.69260    1.000
    C24      C        0.94810    0.87390    0.67210    1.000
    H9       H        0.99640    0.89110    0.72200    1.000
    C25      C        0.71570    0.78380    0.44460    1.000
    C26      C        0.60380    0.81840    0.40280    1.000
    H10      H        0.57970    0.86120    0.42480    1.000
    C27      C        0.52780    0.79010    0.32920    1.000
    C28      C        0.41160    0.83250    0.28680    1.000
    C29      C        0.56150    0.72480    0.29580    1.000
    H11      H        0.51160    0.70790    0.24590    1.000
    C30      C        0.67080    0.68430    0.33770    1.000
    C31      C        0.70490    0.60380    0.30610    1.000
    C32      C        0.74620    0.71560    0.41040    1.000
    H12      H        0.81970    0.69020    0.43740    1.000
    Mn5      Mn       0.77267    0.44228    0.27293    1.000
    Mn6      Mn       0.70493    0.27085    0.13121    1.000
    O17      O        0.76320    0.41090    0.11455    1.000
    O18      O        0.84480    0.49790    0.22070    1.000
    O19      O        0.14670    0.74060    0.25856    1.000
    O20      O        0.09710    0.84000    0.16240    1.000
    O21      O        0.79700    0.94310    0.85024    1.000
    O22      O        0.64310    0.91820    0.73892    1.000
    O23      O        0.35590    0.65650    0.71820    1.000
    O24      O        0.37130    0.63790    0.82272    1.000
    C33      C        0.81660    0.48590    0.15570    1.000
    C34      C        0.84870    0.57100    0.12520    1.000
    C35      C        0.77590    0.59760    0.05100    1.000
    H13      H        0.71170    0.55820    0.01970    1.000
    C36      C        0.79730    0.68250    0.02210    1.000
    C37      C        0.89830    0.73550    0.07010    1.000
    H14      H        0.91520    0.79180    0.05230    1.000
    C38      C        0.97440    0.70630    0.14400    1.000
    C39      C        0.08180    0.76660    0.19260    1.000
    C40      C        0.94810    0.62610    0.17210    1.000
    H15      H        0.99640    0.60890    0.22200    1.000
    C41      C        0.71570    0.71620    0.94460    1.000
    C42      C        0.60380    0.68160    0.90280    1.000
    H16      H        0.57970    0.63880    0.92480    1.000
    C43      C        0.52780    0.70990    0.82920    1.000
    C44      C        0.41160    0.66750    0.78680    1.000
    C45      C        0.56150    0.77520    0.79580    1.000
    H17      H        0.51160    0.79210    0.74590    1.000
    C46      C        0.67080    0.81570    0.83770    1.000
    C47      C        0.70490    0.89620    0.80610    1.000
    C48      C        0.74620    0.78440    0.91040    1.000
    H18      H        0.81970    0.80980    0.93740    1.000
    Mn7      Mn       0.22733    0.94228    0.22707    1.000
    Mn8      Mn       0.29507    0.77085    0.36879    1.000
    O25      O        0.23680    0.91090    0.38545    1.000
    O26      O        0.15520    0.99790    0.27930    1.000
    O27      O        0.85330    0.24060    0.24144    1.000
    O28      O        0.90290    0.34000    0.33760    1.000
    O29      O        0.20300    0.44310    0.64976    1.000
    O30      O        0.35690    0.41820    0.76108    1.000
    O31      O        0.64410    0.15650    0.78180    1.000
    O32      O        0.62870    0.13790    0.67728    1.000
    C49      C        0.18340    0.98590    0.34430    1.000
    C50      C        0.15130    0.07100    0.37480    1.000
    C51      C        0.22410    0.09760    0.44900    1.000
    H19      H        0.28830    0.05820    0.48030    1.000
    C52      C        0.20270    0.18250    0.47790    1.000
    C53      C        0.10170    0.23550    0.42990    1.000
    H20      H        0.08480    0.29180    0.44770    1.000
    C54      C        0.02560    0.20630    0.35600    1.000
    C55      C        0.91820    0.26660    0.30740    1.000
    C56      C        0.05190    0.12610    0.32790    1.000
    H21      H        0.00360    0.10890    0.27800    1.000
    C57      C        0.28430    0.21620    0.55540    1.000
    C58      C        0.39620    0.18160    0.59720    1.000
    H22      H        0.42030    0.13880    0.57520    1.000
    C59      C        0.47220    0.20990    0.67080    1.000
    C60      C        0.58840    0.16750    0.71320    1.000
    C61      C        0.43850    0.27520    0.70420    1.000
    H23      H        0.48840    0.29210    0.75410    1.000
    C62      C        0.32920    0.31570    0.66230    1.000
    C63      C        0.29510    0.39620    0.69390    1.000
    C64      C        0.25380    0.28440    0.58960    1.000
    H24      H        0.18030    0.30980    0.56260    1.000
