# CIF file generated by openbabel 3.1.0, see https://openbabel.org
data_I
_chemical_name_common 'ja5111317_si_002'
_cell_length_a 25.3468
_cell_length_b 25.3468
_cell_length_c 25.3468
_cell_angle_alpha 90
_cell_angle_beta 90
_cell_angle_gamma 90
_space_group_name_H-M_alt 'P 1'
_space_group_name_Hall 'P 1'
loop_
    _symmetry_equiv_pos_as_xyz
    x,y,z
loop_
    _atom_site_label
    _atom_site_type_symbol
    _atom_site_fract_x
    _atom_site_fract_y
    _atom_site_fract_z
    _atom_site_occupancy
    C1       C        0.45685    0.99155    0.38894    1.000
    C2       C        0.47455    0.99203    0.33433    1.000
    H3       H        0.45125    0.99286    0.29857    1.000
    C4       C        0.39191    0.98855    0.45860    1.000
    C5       C        0.33649    0.98304    0.47428    1.000
    H6       H        0.30237    0.97972    0.44885    1.000
    C7       C        0.40645    0.99090    0.40293    1.000
    C8       C        0.61115    0.99534    0.45688    1.000
    C9       C        0.66562    0.99978    0.47445    1.000
    H10      H        0.70121    0.00222    0.45097    1.000
    C11      C        0.54160    0.99096    0.39187    1.000
    C12      C        0.52583    0.99068    0.33621    1.000
    H13      H        0.55111    0.98990    0.30184    1.000
    C14      C        0.59729    0.99243    0.40655    1.000
    N15      N        0.50124    0.99121    0.42426    1.000
    C16      C        0.38911    0.98637    0.54328    1.000
    C17      C        0.33472    0.98152    0.52558    1.000
    H18      H        0.29927    0.97699    0.54895    1.000
    C19      C        0.45850    0.99268    0.60831    1.000
    C20      C        0.47416    0.99499    0.66396    1.000
    H21      H        0.44882    0.99495    0.69830    1.000
    C22      C        0.40292    0.98870    0.59366    1.000
    N23      N        0.42430    0.98956    0.49893    1.000
    C24      C        0.54314    0.99698    0.61124    1.000
    C25      C        0.52542    0.99691    0.66585    1.000
    H26      H        0.54868    0.99821    0.70162    1.000
    C27      C        0.60815    0.99805    0.54154    1.000
    C28      C        0.66369    0.00156    0.52572    1.000
    H29      H        0.69784    0.00572    0.55099    1.000
    Ni30     Ni       0.50005    0.99256    0.50009    1.000
    C31      C        0.59353    0.99818    0.59726    1.000
    N32      N        0.49883    0.99415    0.57593    1.000
    N33      N        0.57582    0.99534    0.50125    1.000
    C34      C        0.38919    0.44928    0.00543    1.000
    C35      C        0.33486    0.46702    0.01084    1.000
    H36      H        0.29947    0.44369    0.01598    1.000
    C37      C        0.45845    0.38440    0.99698    1.000
    C38      C        0.47393    0.32909    0.98998    1.000
    H39      H        0.44840    0.29505    0.98671    1.000
    C40      C        0.40295    0.39891    0.00233    1.000
    C41      C        0.45696    0.60357    0.99975    1.000
    C42      C        0.47472    0.65815    0.99870    1.000
    H43      H        0.45146    0.69389    0.99667    1.000
    C44      C        0.39196    0.53396    0.00263    1.000
    C45      C        0.33660    0.51830    0.00873    1.000
    H46      H        0.30251    0.54375    0.01222    1.000
    C47      C        0.40654    0.58962    0.00012    1.000
    N48      N        0.42432    0.49363    0.00161    1.000
    C49      C        0.54307    0.38160    0.99256    1.000
    C50      C        0.52519    0.32732    0.98715    1.000
    H51      H        0.54843    0.29195    0.98142    1.000
    C52      C        0.60826    0.45085    0.99881    1.000
    C53      C        0.66390    0.46642    0.00184    1.000
    H54      H        0.69820    0.44103    0.00199    1.000
    C55      C        0.59350    0.39531    0.99458    1.000
    N56      N        0.49884    0.41672    0.99749    1.000
    C57      C        0.61125    0.53546    0.00390    1.000
    C58      C        0.66583    0.51766    0.00448    1.000
    H59      H        0.70159    0.54089    0.00653    1.000
    C60      C        0.54167    0.60061    0.00260    1.000
    C61      C        0.52595    0.65628    0.00140    1.000
    H62      H        0.55124    0.69064    0.00225    1.000
    Ni63     Ni       0.50011    0.49246    0.00030    1.000
    C64      C        0.59736    0.58588    0.00427    1.000
    N65      N        0.57593    0.49122    0.00029    1.000
    N66      N        0.50131    0.56826    0.00182    1.000
    C67      C        0.99687    0.38129    0.45691    1.000
    C68      C        0.99147    0.32695    0.47461    1.000
    H69      H        0.98732    0.29147    0.45121    1.000
    C70      C        0.00310    0.45072    0.39196    1.000
    C71      C        0.00861    0.46643    0.33654    1.000
    H72      H        0.01289    0.44105    0.30250    1.000
    C73      C        0.00017    0.39507    0.40657    1.000
    C74      C        0.00341    0.44923    0.61103    1.000
    C75      C        0.00895    0.46693    0.66536    1.000
    H76      H        0.01323    0.44354    0.70082    1.000
    C77      C        0.99706    0.38428    0.54162    1.000
    C78      C        0.99163    0.32885    0.52593    1.000
    H79      H        0.98750    0.29480    0.55132    1.000
    C80      C        0.00011    0.39890    0.59726    1.000
    N81      N        0.99919    0.41654    0.50125    1.000
    C82      C        0.00310    0.53544    0.38897    1.000
    C83      C        0.00866    0.51775    0.33464    1.000
    H84      H        0.01284    0.54116    0.29917    1.000
    C85      C        0.99650    0.60036    0.45839    1.000
    C86      C        0.99079    0.65576    0.47410    1.000
    H87      H        0.98644    0.68979    0.44871    1.000
    C88      C        0.99961    0.58577    0.40275    1.000
    N89      N        0.00082    0.49109    0.42422    1.000
    C90      C        0.99638    0.60335    0.54311    1.000
    C91      C        0.99067    0.65766    0.52542    1.000
    H92      H        0.98635    0.69312    0.54882    1.000
    C93      C        0.00310    0.53395    0.60805    1.000
    C94      C        0.00874    0.51826    0.66346    1.000
    H95      H        0.01296    0.54365    0.69750    1.000
    Ni96     Ni       0.99994    0.49233    0.50001    1.000
    C97      C        0.99988    0.58959    0.59344    1.000
    N98      N        0.99882    0.56811    0.49876    1.000
    N99      N        0.00094    0.49358    0.57579    1.000
    O100     O        0.86397    0.99504    0.92811    1.000
    O101     O        0.13617    0.98978    0.92828    1.000
    O102     O        0.99912    0.06384    0.86369    1.000
    O103     O        0.00205    0.92028    0.86411    1.000
    O104     O        0.00049    0.85600    0.92851    1.000
    O105     O        0.99822    0.12830    0.92792    1.000
    O106     O        0.07181    0.99070    0.86394    1.000
    O107     O        0.92836    0.99357    0.86379    1.000
    Zr108    Zr       0.00008    0.99217    0.90688    1.000
    O109     O        0.04785    0.94422    0.95223    1.000
    O110     O        0.95213    0.04024    0.95192    1.000
    C111     C        0.87939    0.99518    0.87914    1.000
    C112     C        0.12076    0.98943    0.87929    1.000
    C113     C        0.99808    0.11284    0.87898    1.000
    C114     C        0.00188    0.87131    0.87953    1.000
    H115     H        0.07038    0.06224    0.92987    1.000
    O116     O        0.04773    0.03982    0.95236    1.000
    H117     H        0.92960    0.92226    0.92997    1.000
    O118     O        0.95223    0.94473    0.95243    1.000
    O119     O        0.13617    0.99318    0.07181    1.000
    O120     O        0.86383    0.99157    0.07179    1.000
    O121     O        0.07181    0.12840    0.00112    1.000
    O122     O        0.07152    0.85607    0.99808    1.000
    O123     O        0.92789    0.85641    0.00275    1.000
    O124     O        0.92821    0.12858    0.99724    1.000
    O125     O        0.00199    0.06442    0.13594    1.000
    O126     O        0.99896    0.92083    0.13634    1.000
    O127     O        0.00101    0.12869    0.07148    1.000
    O128     O        0.99785    0.85639    0.07206    1.000
    O129     O        0.13615    0.06402    0.00224    1.000
    O130     O        0.86386    0.06426    0.99851    1.000
    O131     O        0.86362    0.92086    0.00127    1.000
    O132     O        0.13597    0.92035    0.99907    1.000
    O133     O        0.07184    0.99459    0.13617    1.000
    O134     O        0.92824    0.99055    0.13612    1.000
    Zr135    Zr       0.09314    0.99218    0.00009    1.000
    Zr136    Zr       0.90681    0.99255    0.99998    1.000
    Zr137    Zr       0.99999    0.08551    0.99978    1.000
    Zr138    Zr       0.99974    0.89919    0.00019    1.000
    Zr139    Zr       0.00004    0.99254    0.09317    1.000
    O140     O        0.95196    0.94466    0.04802    1.000
    O141     O        0.04794    0.04034    0.04782    1.000
    C142     C        0.12082    0.99449    0.12077    1.000
    C143     C        0.87925    0.99042    0.12075    1.000
    C144     C        0.12078    0.11302    0.00246    1.000
    C145     C        0.12053    0.87141    0.99791    1.000
    C146     C        0.87895    0.87188    0.00289    1.000
    C147     C        0.87922    0.11320    0.99698    1.000
    C148     C        0.00217    0.11338    0.12048    1.000
    C149     C        0.99772    0.87184    0.12103    1.000
    H150     H        0.92988    0.06276    0.07000    1.000
    O151     O        0.95239    0.04016    0.04756    1.000
    H152     H        0.06996    0.92214    0.07027    1.000
    O153     O        0.04750    0.94469    0.04773    1.000
    C154     C        0.28362    0.99293    0.28352    1.000
    C155     C        0.31730    0.94909    0.28891    1.000
    C156     C        0.35658    0.94816    0.32789    1.000
    C157     C        0.36382    0.99144    0.36181    1.000
    C158     C        0.33018    0.03520    0.35665    1.000
    C159     C        0.29032    0.03582    0.31818    1.000
    C160     C        0.24192    0.99392    0.24177    1.000
    C161     C        0.19050    0.01149    0.25318    1.000
    C162     C        0.15122    0.01156    0.21411    1.000
    C163     C        0.16255    0.99488    0.16234    1.000
    C164     C        0.21419    0.97793    0.15083    1.000
    C165     C        0.25319    0.97709    0.19010    1.000
    H166     H        0.38168    0.91376    0.33143    1.000
    H167     H        0.33490    0.06896    0.38241    1.000
    H168     H        0.11200    0.02501    0.22440    1.000
    H169     H        0.22437    0.96461    0.11153    1.000
    H170     H        0.26530    0.07029    0.31490    1.000
    H171     H        0.18041    0.02437    0.29264    1.000
    H172     H        0.31280    0.91518    0.26333    1.000
    H173     H        0.29248    0.96378    0.17986    1.000
    C174     C        0.71727    0.99077    0.28431    1.000
    C175     C        0.71103    0.94755    0.31864    1.000
    C176     C        0.67195    0.94793    0.35785    1.000
    C177     C        0.63867    0.99183    0.36420    1.000
    C178     C        0.64515    0.03526    0.33035    1.000
    C179     C        0.68367    0.03456    0.29058    1.000
    C180     C        0.75868    0.99024    0.24227    1.000
    C181     C        0.74714    0.00751    0.19079    1.000
    C182     C        0.78596    0.00693    0.15131    1.000
    C183     C        0.83764    0.98986    0.16244    1.000
    C184     C        0.84922    0.97282    0.21403    1.000
    C185     C        0.81016    0.97262    0.25328    1.000
    H186     H        0.66769    0.91398    0.38345    1.000
    H187     H        0.62019    0.06966    0.33469    1.000
    H188     H        0.77562    0.02054    0.11214    1.000
    H189     H        0.88849    0.95927    0.22404    1.000
    H190     H        0.68778    0.06868    0.26520    1.000
    H191     H        0.70781    0.02092    0.18088    1.000
    H192     H        0.73594    0.91307    0.31462    1.000
    H193     H        0.82046    0.95945    0.29259    1.000
    C194     C        0.71629    0.99849    0.71674    1.000
    C195     C        0.70937    0.95487    0.68308    1.000
    C196     C        0.66951    0.95477    0.64467    1.000
    C197     C        0.63611    0.99858    0.63843    1.000
    C198     C        0.64339    0.04251    0.67150    1.000
    C199     C        0.68269    0.04228    0.71052    1.000
    C200     C        0.75823    0.99818    0.75825    1.000
    C201     C        0.74730    0.01543    0.80986    1.000
    C202     C        0.78641    0.01423    0.84906    1.000
    C203     C        0.83778    0.99655    0.83747    1.000
    C204     C        0.84885    0.97989    0.78565    1.000
    C205     C        0.80949    0.98028    0.74670    1.000
    H206     H        0.66464    0.92044    0.61970    1.000
    H207     H        0.61835    0.07687    0.66725    1.000
    H208     H        0.77647    0.02754    0.88842    1.000
    H209     H        0.88785    0.96587    0.77528    1.000
    H210     H        0.68730    0.07668    0.73543    1.000
    H211     H        0.70814    0.02907    0.82016    1.000
    H212     H        0.73426    0.92038    0.68710    1.000
    H213     H        0.81933    0.96712    0.70726    1.000
    C214     C        0.28296    0.98773    0.71593    1.000
    C215     C        0.31784    0.94488    0.71007    1.000
    C216     C        0.35640    0.94496    0.67030    1.000
    C217     C        0.36154    0.98824    0.63601    1.000
    C218     C        0.32711    0.03128    0.64212    1.000
    C219     C        0.28806    0.03087    0.68132    1.000
    C220     C        0.24135    0.98751    0.75778    1.000
    C221     C        0.18962    0.00407    0.74635    1.000
    C222     C        0.15054    0.00413    0.78552    1.000
    C223     C        0.16226    0.98837    0.83749    1.000
    C224     C        0.21408    0.97195    0.84897    1.000
    C225     C        0.25298    0.97114    0.80954    1.000
    H226     H        0.38239    0.91129    0.66626    1.000
    H227     H        0.33045    0.06517    0.61632    1.000
    H228     H        0.11119    0.01718    0.77518    1.000
    H229     H        0.22453    0.95937    0.88845    1.000
    H230     H        0.26225    0.06470    0.68507    1.000
    H231     H        0.17921    0.01648    0.70681    1.000
    H232     H        0.31470    0.91088    0.73575    1.000
    H233     H        0.29250    0.95852    0.81976    1.000
    C234     C        0.28328    0.27627    0.00358    1.000
    C235     C        0.28679    0.31229    0.96144    1.000
    C236     C        0.32573    0.35159    0.96090    1.000
    C237     C        0.36166    0.35644    0.00287    1.000
    C238     C        0.35831    0.32058    0.04502    1.000
    C239     C        0.31979    0.28075    0.04523    1.000
    C240     C        0.24161    0.23444    0.00399    1.000
    C241     C        0.25357    0.18230    0.01888    1.000
    C242     C        0.21458    0.14293    0.01825    1.000
    C243     C        0.16236    0.15480    0.00344    1.000
    C244     C        0.15033    0.20713    0.98916    1.000
    C245     C        0.18946    0.24627    0.98911    1.000
    H246     H        0.32778    0.37848    0.92776    1.000
    H247     H        0.38558    0.32349    0.07778    1.000
    H248     H        0.22534    0.10319    0.02965    1.000
    H249     H        0.11067    0.21783    0.97741    1.000
    H250     H        0.31797    0.25395    0.07845    1.000
    H251     H        0.29340    0.17173    0.03017    1.000
    H252     H        0.25979    0.30959    0.92844    1.000
    H253     H        0.17874    0.28609    0.97793    1.000
    C254     C        0.28358    0.70889    0.99843    1.000
    C255     C        0.28990    0.67399    0.95567    1.000
    C256     C        0.32984    0.63560    0.95611    1.000
    C257     C        0.36394    0.63077    0.99956    1.000
    C258     C        0.35707    0.66495    0.04270    1.000
    C259     C        0.31772    0.70384    0.04194    1.000
    C260     C        0.24179    0.75056    0.99768    1.000
    C261     C        0.25316    0.80232    0.01417    1.000
    C262     C        0.21408    0.84150    0.01364    1.000
    C263     C        0.16227    0.82984    0.99735    1.000
    C264     C        0.15084    0.77799    0.98101    1.000
    C265     C        0.19019    0.73898    0.98077    1.000
    H266     H        0.33424    0.60961    0.92248    1.000
    H267     H        0.38249    0.66164    0.07688    1.000
    H268     H        0.22436    0.88087    0.02667    1.000
    H269     H        0.11147    0.76758    0.96805    1.000
    H270     H        0.31351    0.72960    0.07576    1.000
    H271     H        0.29258    0.81269    0.02697    1.000
    H272     H        0.26451    0.67702    0.92145    1.000
    H273     H        0.18002    0.69945    0.96818    1.000
    C274     C        0.71701    0.70843    0.00532    1.000
    C275     C        0.68507    0.70017    0.96066    1.000
    C276     C        0.64670    0.66028    0.96028    1.000
    C277     C        0.63866    0.62832    0.00486    1.000
    C278     C        0.67017    0.63677    0.04972    1.000
    C279     C        0.70922    0.67606    0.04978    1.000
    C280     C        0.75834    0.75051    0.00538    1.000
    C281     C        0.80950    0.74009    0.02422    1.000
    C282     C        0.84861    0.77929    0.02321    1.000
    C283     C        0.83732    0.83026    0.00422    1.000
    C284     C        0.78591    0.84086    0.98608    1.000
    C285     C        0.74709    0.80137    0.98621    1.000
    H286     H        0.62307    0.65436    0.92517    1.000
    H287     H        0.66463    0.61271    0.08459    1.000
    H288     H        0.88766    0.76976    0.03769    1.000
    H289     H        0.77582    0.87955    0.97102    1.000
    H290     H        0.73287    0.68167    0.08491    1.000
    H291     H        0.81954    0.70124    0.03891    1.000
    H292     H        0.69040    0.72406    0.92564    1.000
    H293     H        0.70799    0.81077    0.97180    1.000
    C294     C        0.71576    0.27531    0.99393    1.000
    C295     C        0.71032    0.31044    0.95123    1.000
    C296     C        0.67051    0.34900    0.95114    1.000
    C297     C        0.63577    0.35383    0.99408    1.000
    C298     C        0.64146    0.31912    0.03696    1.000
    C299     C        0.68069    0.28012    0.03673    1.000
    C300     C        0.75765    0.23372    0.99398    1.000
    C301     C        0.74612    0.18198    0.01043    1.000
    C302     C        0.78533    0.14294    0.01088    1.000
    C303     C        0.83743    0.15470    0.99560    1.000
    C304     C        0.84901    0.20652    0.97925    1.000
    C305     C        0.80955    0.24540    0.97807    1.000
    H306     H        0.66684    0.37523    0.91762    1.000
    H307     H        0.61534    0.32225    0.07063    1.000
    H308     H        0.77489    0.10358    0.02383    1.000
    H309     H        0.88859    0.21700    0.96701    1.000
    H310     H        0.68412    0.25414    0.07046    1.000
    H311     H        0.70648    0.17152    0.02246    1.000
    H312     H        0.73636    0.30754    0.91750    1.000
    H313     H        0.81986    0.28492    0.96555    1.000
    C314     C        0.00179    0.27544    0.28400    1.000
    C315     C        0.04381    0.27982    0.32006    1.000
    C316     C        0.04340    0.31874    0.35941    1.000
    C317     C        0.00065    0.35374    0.36418    1.000
    C318     C        0.95852    0.34932    0.32842    1.000
    C319     C        0.95923    0.31086    0.28858    1.000
    C320     C        0.00232    0.23402    0.24195    1.000
    C321     C        0.98697    0.24603    0.18998    1.000
    C322     C        0.98755    0.20718    0.15053    1.000
    C323     C        0.00279    0.15504    0.16213    1.000
    C324     C        0.01801    0.14302    0.21419    1.000
    C325     C        0.01812    0.18206    0.25345    1.000
    H326     H        0.07646    0.32155    0.38633    1.000
    H327     H        0.92508    0.37575    0.33138    1.000
    H328     H        0.97542    0.21792    0.11099    1.000
    H329     H        0.03014    0.10340    0.22462    1.000
    H330     H        0.92604    0.30826    0.26181    1.000
    H331     H        0.97505    0.28574    0.17966    1.000
    H332     H        0.07741    0.25359    0.31733    1.000
    H333     H        0.02978    0.17135    0.29313    1.000
    C334     C        0.99868    0.27634    0.71691    1.000
    C335     C        0.04123    0.28097    0.68148    1.000
    C336     C        0.04188    0.32081    0.64302    1.000
    C337     C        0.99971    0.35651    0.63860    1.000
    C338     C        0.95696    0.35168    0.67360    1.000
    C339     C        0.95661    0.31233    0.71251    1.000
    C340     C        0.99819    0.23430    0.75834    1.000
    C341     C        0.98225    0.24578    0.81026    1.000
    C342     C        0.98230    0.20653    0.84929    1.000
    C343     C        0.99760    0.15449    0.83732    1.000
    C344     C        0.01306    0.14290    0.78524    1.000
    C345     C        0.01370    0.18235    0.74639    1.000
    H346     H        0.07531    0.32381    0.61658    1.000
    H347     H        0.92387    0.37857    0.67079    1.000
    H348     H        0.97003    0.21694    0.88888    1.000
    H349     H        0.02531    0.10338    0.77456    1.000
    H350     H        0.92301    0.30956    0.73874    1.000
    H351     H        0.97049    0.28544    0.82093    1.000
    H352     H        0.07446    0.25425    0.68408    1.000
    H353     H        0.02575    0.17204    0.70672    1.000
    C354     C        0.00137    0.70924    0.71600    1.000
    C355     C        0.95900    0.67357    0.71164    1.000
    C356     C        0.95832    0.63512    0.67179    1.000
    C357     C        0.00030    0.63093    0.63583    1.000
    C358     C        0.04288    0.66618    0.64041    1.000
    C359     C        0.04324    0.70510    0.67975    1.000
    C360     C        0.00187    0.75066    0.75804    1.000
    C361     C        0.01713    0.80275    0.74640    1.000
    C362     C        0.01705    0.84178    0.78566    1.000
    C363     C        0.00240    0.82966    0.83785    1.000
    C364     C        0.98766    0.77739    0.84959    1.000
    C365     C        0.98704    0.73854    0.81014    1.000
    H366     H        0.92502    0.60849    0.66898    1.000
    H367     H        0.07583    0.66356    0.61333    1.000
    H368     H        0.02876    0.88150    0.77510    1.000
    H369     H        0.97599    0.76655    0.88923    1.000
    H370     H        0.07669    0.73154    0.68231    1.000
    H371     H        0.02837    0.81354    0.70662    1.000
    H372     H        0.92593    0.67597    0.73857    1.000
    H373     H        0.97553    0.69873    0.82055    1.000
    C374     C        0.99794    0.70835    0.28312    1.000
    C375     C        0.95604    0.67214    0.28736    1.000
    C376     C        0.95645    0.63279    0.32628    1.000
    C377     C        0.99911    0.62816    0.36142    1.000
    C378     C        0.04113    0.66408    0.35714    1.000
    C379     C        0.04039    0.70393    0.31869    1.000
    C380     C        0.99740    0.75040    0.24171    1.000
    C381     C        0.01249    0.80244    0.25378    1.000
    C382     C        0.01194    0.84188    0.21492    1.000
    C383     C        0.99703    0.83019    0.16270    1.000
    C384     C        0.98206    0.77808    0.15063    1.000
    C385     C        0.98190    0.73883    0.18967    1.000
    H386     H        0.92348    0.60575    0.32897    1.000
    H387     H        0.07449    0.66123    0.38368    1.000
    H388     H        0.02385    0.88146    0.22572    1.000
    H389     H        0.97019    0.76758    0.11095    1.000
    H390     H        0.07349    0.73082    0.31621    1.000
    H391     H        0.02416    0.81281    0.29355    1.000
    H392     H        0.92252    0.67475    0.26101    1.000
    H393     H        0.97045    0.69910    0.17892    1.000
