# CIF file generated by openbabel 3.1.0, see https://openbabel.org
data_I
_chemical_name_common 'image0'
_cell_length_a 16.8167
_cell_length_b 14.2636
_cell_length_c 12.007
_cell_angle_alpha 90
_cell_angle_beta 118.469
_cell_angle_gamma 90
_space_group_name_H-M_alt 'P 1'
_space_group_name_Hall 'P 1'
loop_
    _symmetry_equiv_pos_as_xyz
    x,y,z
loop_
    _atom_site_label
    _atom_site_type_symbol
    _atom_site_fract_x
    _atom_site_fract_y
    _atom_site_fract_z
    _atom_site_occupancy
    Co1      Co       0.40322    0.82699    0.59902    1.000
    O1       O        0.29843    0.90603    0.58580    1.000
    O2       O        0.36117    0.00405    0.75010    1.000
    C1       C        0.29570    0.97440    0.65030    1.000
    C2       C        0.20560    0.02400    0.59840    1.000
    C3       C        0.18830    0.08980    0.66880    1.000
    H1       H        0.23250    0.10300    0.75350    1.000
    C4       C        0.10470    0.13690    0.61420    1.000
    C5       C        0.07920    0.21030    0.68240    1.000
    O3       O        0.12989    0.22675    0.79700    1.000
    O4       O        0.00576    0.24770    0.61470    1.000
    C6       C        0.04120    0.11680    0.48940    1.000
    H2       H        0.98500    0.14900    0.45130    1.000
    C7       C        0.05910    0.05090    0.42070    1.000
    C8       C        0.14120    0.00420    0.47420    1.000
    H3       H        0.15350    0.95890    0.42640    1.000
    O5       O        0.99580    0.06500    0.28930    1.000
    C9       C        0.01450    0.01110    0.20560    1.000
    H4       H        0.00670    0.94440    0.21310    1.000
    H5       H        0.07480    0.02300    0.21730    1.000
    H6       H        0.53590    0.96170    0.75280    1.000
    H7       H        0.48080    0.93310    0.80460    1.000
    Co2      Co       0.90322    0.32699    0.59902    1.000
    O6       O        0.79843    0.40603    0.58580    1.000
    O7       O        0.86117    0.50405    0.75010    1.000
    C10      C        0.79570    0.47440    0.65030    1.000
    C11      C        0.70560    0.52400    0.59840    1.000
    C12      C        0.68830    0.58980    0.66880    1.000
    H8       H        0.73250    0.60300    0.75350    1.000
    C13      C        0.60470    0.63690    0.61420    1.000
    C14      C        0.57920    0.71030    0.68240    1.000
    O8       O        0.62989    0.72675    0.79700    1.000
    O9       O        0.50576    0.74770    0.61470    1.000
    C15      C        0.54120    0.61680    0.48940    1.000
    H9       H        0.48500    0.64900    0.45130    1.000
    C16      C        0.55910    0.55090    0.42070    1.000
    C17      C        0.64120    0.50420    0.47420    1.000
    H10      H        0.65350    0.45890    0.42640    1.000
    O10      O        0.49580    0.56500    0.28930    1.000
    C18      C        0.51450    0.51110    0.20560    1.000
    H11      H        0.50670    0.44440    0.21310    1.000
    H12      H        0.57480    0.52300    0.21730    1.000
    H13      H        0.03590    0.46170    0.75280    1.000
    H14      H        0.98080    0.43310    0.80460    1.000
    Co3      Co       0.59678    0.82699    0.90098    1.000
    O11      O        0.70157    0.90603    0.91420    1.000
    O12      O        0.63883    0.00405    0.74990    1.000
    C19      C        0.70430    0.97440    0.84970    1.000
    C20      C        0.79440    0.02400    0.90160    1.000
    C21      C        0.81170    0.08980    0.83120    1.000
    H15      H        0.76750    0.10300    0.74650    1.000
    C22      C        0.89530    0.13690    0.88580    1.000
    C23      C        0.92080    0.21030    0.81760    1.000
    O13      O        0.87011    0.22675    0.70300    1.000
    O14      O        0.99424    0.24770    0.88530    1.000
    C24      C        0.95880    0.11680    0.01060    1.000
    H16      H        0.01500    0.14900    0.04870    1.000
    C25      C        0.94090    0.05090    0.07930    1.000
    C26      C        0.85880    0.00420    0.02580    1.000
    H17      H        0.84650    0.95890    0.07360    1.000
    O15      O        0.00420    0.06500    0.21070    1.000
    C27      C        0.98550    0.01110    0.29440    1.000
    H18      H        0.99330    0.94440    0.28690    1.000
    H19      H        0.92520    0.02300    0.28270    1.000
    H20      H        0.46410    0.96170    0.74720    1.000
    H21      H        0.51920    0.93310    0.69540    1.000
    Co4      Co       0.09678    0.32699    0.90098    1.000
    O16      O        0.20157    0.40603    0.91420    1.000
    O17      O        0.13883    0.50405    0.74990    1.000
    C28      C        0.20430    0.47440    0.84970    1.000
    C29      C        0.29440    0.52400    0.90160    1.000
    C30      C        0.31170    0.58980    0.83120    1.000
    H22      H        0.26750    0.60300    0.74650    1.000
    C31      C        0.39530    0.63690    0.88580    1.000
    C32      C        0.42080    0.71030    0.81760    1.000
    O18      O        0.37011    0.72675    0.70300    1.000
    O19      O        0.49424    0.74770    0.88530    1.000
    C33      C        0.45880    0.61680    0.01060    1.000
    H23      H        0.51500    0.64900    0.04870    1.000
    C34      C        0.44090    0.55090    0.07930    1.000
    C35      C        0.35880    0.50420    0.02580    1.000
    H24      H        0.34650    0.45890    0.07360    1.000
    O20      O        0.50420    0.56500    0.21070    1.000
    C36      C        0.48550    0.51110    0.29440    1.000
    H25      H        0.49330    0.44440    0.28690    1.000
    H26      H        0.42520    0.52300    0.28270    1.000
    H27      H        0.96410    0.46170    0.74720    1.000
    H28      H        0.01920    0.43310    0.69540    1.000
    O21      O        0.50000    0.91400    0.75000    1.000
    O22      O        0.00000    0.41400    0.75000    1.000
    Co5      Co       0.59678    0.17301    0.40098    1.000
    O23      O        0.70157    0.09397    0.41420    1.000
    O24      O        0.63883    0.99595    0.24990    1.000
    C37      C        0.70430    0.02560    0.34970    1.000
    C38      C        0.79440    0.97600    0.40160    1.000
    C39      C        0.81170    0.91020    0.33120    1.000
    H29      H        0.76750    0.89700    0.24650    1.000
    C40      C        0.89530    0.86310    0.38580    1.000
    C41      C        0.92080    0.78970    0.31760    1.000
    O25      O        0.87011    0.77325    0.20300    1.000
    O26      O        0.99424    0.75230    0.38530    1.000
    C42      C        0.95880    0.88320    0.51060    1.000
    H30      H        0.01500    0.85100    0.54870    1.000
    C43      C        0.94090    0.94910    0.57930    1.000
    C44      C        0.85880    0.99580    0.52580    1.000
    H31      H        0.84650    0.04110    0.57360    1.000
    O27      O        0.00420    0.93500    0.71070    1.000
    C45      C        0.98550    0.98890    0.79440    1.000
    H32      H        0.99330    0.05560    0.78690    1.000
    H33      H        0.92520    0.97700    0.78270    1.000
    H34      H        0.46410    0.03830    0.24720    1.000
    H35      H        0.51920    0.06690    0.19540    1.000
    Co6      Co       0.09678    0.67301    0.40098    1.000
    O28      O        0.20157    0.59397    0.41420    1.000
    O29      O        0.13883    0.49595    0.24990    1.000
    C46      C        0.20430    0.52560    0.34970    1.000
    C47      C        0.29440    0.47600    0.40160    1.000
    C48      C        0.31170    0.41020    0.33120    1.000
    H36      H        0.26750    0.39700    0.24650    1.000
    C49      C        0.39530    0.36310    0.38580    1.000
    C50      C        0.42080    0.28970    0.31760    1.000
    O30      O        0.37011    0.27325    0.20300    1.000
    O31      O        0.49424    0.25230    0.38530    1.000
    C51      C        0.45880    0.38320    0.51060    1.000
    H37      H        0.51500    0.35100    0.54870    1.000
    C52      C        0.44090    0.44910    0.57930    1.000
    C53      C        0.35880    0.49580    0.52580    1.000
    H38      H        0.34650    0.54110    0.57360    1.000
    O32      O        0.50420    0.43500    0.71070    1.000
    C54      C        0.48550    0.48890    0.79440    1.000
    H39      H        0.49330    0.55560    0.78690    1.000
    H40      H        0.42520    0.47700    0.78270    1.000
    H41      H        0.96410    0.53830    0.24720    1.000
    H42      H        0.01920    0.56690    0.19540    1.000
    Co7      Co       0.40322    0.17301    0.09902    1.000
    O33      O        0.29843    0.09397    0.08580    1.000
    O34      O        0.36117    0.99595    0.25010    1.000
    C55      C        0.29570    0.02560    0.15030    1.000
    C56      C        0.20560    0.97600    0.09840    1.000
    C57      C        0.18830    0.91020    0.16880    1.000
    H43      H        0.23250    0.89700    0.25350    1.000
    C58      C        0.10470    0.86310    0.11420    1.000
    C59      C        0.07920    0.78970    0.18240    1.000
    O35      O        0.12989    0.77325    0.29700    1.000
    O36      O        0.00576    0.75230    0.11470    1.000
    C60      C        0.04120    0.88320    0.98940    1.000
    H44      H        0.98500    0.85100    0.95130    1.000
    C61      C        0.05910    0.94910    0.92070    1.000
    C62      C        0.14120    0.99580    0.97420    1.000
    H45      H        0.15350    0.04110    0.92640    1.000
    O37      O        0.99580    0.93500    0.78930    1.000
    C63      C        0.01450    0.98890    0.70560    1.000
    H46      H        0.00670    0.05560    0.71310    1.000
    H47      H        0.07480    0.97700    0.71730    1.000
    H48      H        0.53590    0.03830    0.25280    1.000
    H49      H        0.48080    0.06690    0.30460    1.000
    Co8      Co       0.90322    0.67301    0.09902    1.000
    O38      O        0.79843    0.59397    0.08580    1.000
    O39      O        0.86117    0.49595    0.25010    1.000
    C64      C        0.79570    0.52560    0.15030    1.000
    C65      C        0.70560    0.47600    0.09840    1.000
    C66      C        0.68830    0.41020    0.16880    1.000
    H50      H        0.73250    0.39700    0.25350    1.000
    C67      C        0.60470    0.36310    0.11420    1.000
    C68      C        0.57920    0.28970    0.18240    1.000
    O40      O        0.62989    0.27325    0.29700    1.000
    O41      O        0.50576    0.25230    0.11470    1.000
    C69      C        0.54120    0.38320    0.98940    1.000
    H51      H        0.48500    0.35100    0.95130    1.000
    C70      C        0.55910    0.44910    0.92070    1.000
    C71      C        0.64120    0.49580    0.97420    1.000
    H52      H        0.65350    0.54110    0.92640    1.000
    O42      O        0.49580    0.43500    0.78930    1.000
    C72      C        0.51450    0.48890    0.70560    1.000
    H53      H        0.50670    0.55560    0.71310    1.000
    H54      H        0.57480    0.47700    0.71730    1.000
    H55      H        0.03590    0.53830    0.25280    1.000
    H56      H        0.98080    0.56690    0.30460    1.000
    O43      O        0.50000    0.08600    0.25000    1.000
    O44      O        0.00000    0.58600    0.25000    1.000
