# CIF file generated by openbabel 3.1.0, see https://openbabel.org
data_I
_chemical_name_common 'image0'
_cell_length_a 13.047
_cell_length_b 11.6893
_cell_length_c 7.8244
_cell_angle_alpha 90
_cell_angle_beta 109.954
_cell_angle_gamma 90
_space_group_name_H-M_alt 'P 1'
_space_group_name_Hall 'P 1'
loop_
    _symmetry_equiv_pos_as_xyz
    x,y,z
loop_
    _atom_site_label
    _atom_site_type_symbol
    _atom_site_fract_x
    _atom_site_fract_y
    _atom_site_fract_z
    _atom_site_occupancy
    C1       C        0.13570    0.86620    0.95040    1.000
    O1       O        0.13110    0.90150    0.79670    1.000
    O2       O        0.07290    0.91100    0.02700    1.000
    C2       C        0.21640    0.77580    0.05250    1.000
    H1       H        0.17680    0.71490    0.08690    1.000
    H2       H        0.26560    0.80950    0.16360    1.000
    C3       C        0.63570    0.36620    0.95040    1.000
    O3       O        0.63110    0.40150    0.79670    1.000
    O4       O        0.57290    0.41100    0.02700    1.000
    C4       C        0.71640    0.27580    0.05250    1.000
    H3       H        0.67680    0.21490    0.08690    1.000
    H4       H        0.76560    0.30950    0.16360    1.000
    C5       C        0.86430    0.86620    0.54960    1.000
    O5       O        0.86890    0.90150    0.70330    1.000
    O6       O        0.92710    0.91100    0.47300    1.000
    C6       C        0.78360    0.77580    0.44750    1.000
    H5       H        0.82320    0.71490    0.41310    1.000
    H6       H        0.73440    0.80950    0.33640    1.000
    C7       C        0.36430    0.36620    0.54960    1.000
    O7       O        0.36890    0.40150    0.70330    1.000
    O8       O        0.42710    0.41100    0.47300    1.000
    C8       C        0.28360    0.27580    0.44750    1.000
    H7       H        0.32320    0.21490    0.41310    1.000
    H8       H        0.23440    0.30950    0.33640    1.000
    C9       C        0.86430    0.13380    0.04960    1.000
    O9       O        0.86890    0.09850    0.20330    1.000
    O10      O        0.92710    0.08900    0.97300    1.000
    C10      C        0.78360    0.22420    0.94750    1.000
    H9       H        0.82320    0.28510    0.91310    1.000
    H10      H        0.73440    0.19050    0.83640    1.000
    C11      C        0.36430    0.63380    0.04960    1.000
    O11      O        0.36890    0.59850    0.20330    1.000
    O12      O        0.42710    0.58900    0.97300    1.000
    C12      C        0.28360    0.72420    0.94750    1.000
    H11      H        0.32320    0.78510    0.91310    1.000
    H12      H        0.23440    0.69050    0.83640    1.000
    C13      C        0.13570    0.13380    0.45040    1.000
    O13      O        0.13110    0.09850    0.29670    1.000
    O14      O        0.07290    0.08900    0.52700    1.000
    C14      C        0.21640    0.22420    0.55250    1.000
    H13      H        0.17680    0.28510    0.58690    1.000
    H14      H        0.26560    0.19050    0.66360    1.000
    C15      C        0.63570    0.63380    0.45040    1.000
    O15      O        0.63110    0.59850    0.29670    1.000
    O16      O        0.57290    0.58900    0.52700    1.000
    C16      C        0.71640    0.72420    0.55250    1.000
    H15      H        0.67680    0.78510    0.58690    1.000
    H16      H        0.76560    0.69050    0.66360    1.000
    Er1      Er       0.00000    0.05540    0.75000    1.000
    Er2      Er       0.50000    0.55540    0.75000    1.000
    Er3      Er       0.00000    0.94460    0.25000    1.000
    Er4      Er       0.50000    0.44460    0.25000    1.000
