# CIF file generated by openbabel 3.1.0, see https://openbabel.org
data_I
_chemical_name_common 'image0'
_cell_length_a 17.485
_cell_length_b 17.485
_cell_length_c 14.019
_cell_angle_alpha 90
_cell_angle_beta 90
_cell_angle_gamma 120
_space_group_name_H-M_alt 'P 1'
_space_group_name_Hall 'P 1'
loop_
    _symmetry_equiv_pos_as_xyz
    x,y,z
loop_
    _atom_site_label
    _atom_site_type_symbol
    _atom_site_fract_x
    _atom_site_fract_y
    _atom_site_fract_z
    _atom_site_occupancy
    O1       O        0.64231    0.42297    0.68097    1.000
    N1       N        0.40154    0.50610    0.91160    1.000
    N2       N        0.33668    0.55960    0.00725    1.000
    C1       C        0.49540    0.45860    0.83100    1.000
    H1       H        0.49570    0.42840    0.88550    1.000
    C2       C        0.44950    0.50330    0.83000    1.000
    C3       C        0.39300    0.57570    0.93780    1.000
    H2       H        0.42450    0.63080    0.90880    1.000
    C4       C        0.34500    0.43640    0.97020    1.000
    C5       C        0.32480    0.34960    0.97640    1.000
    H3       H        0.35140    0.32700    0.93680    1.000
    C6       C        0.26340    0.29800    0.04410    1.000
    H4       H        0.24740    0.23880    0.04960    1.000
    C7       C        0.22480    0.33230    0.10450    1.000
    H5       H        0.18470    0.29580    0.15040    1.000
    C8       C        0.24420    0.41860    0.09820    1.000
    H6       H        0.21780    0.44110    0.13830    1.000
    C9       C        0.30510    0.47080    0.02930    1.000
    O2       O        0.57703    0.21934    0.68097    1.000
    N3       N        0.49390    0.89544    0.91160    1.000
    N4       N        0.44040    0.77708    0.00725    1.000
    C10      C        0.54140    0.03680    0.83100    1.000
    H7       H        0.57160    0.06730    0.88550    1.000
    C11      C        0.49670    0.94620    0.83000    1.000
    C12      C        0.42430    0.81730    0.93780    1.000
    H8       H        0.36920    0.79370    0.90880    1.000
    C13      C        0.56360    0.90860    0.97020    1.000
    C14      C        0.65040    0.97520    0.97640    1.000
    H9       H        0.67300    0.02440    0.93680    1.000
    C15      C        0.70200    0.96540    0.04410    1.000
    H10      H        0.76120    0.00860    0.04960    1.000
    C16      C        0.66770    0.89250    0.10450    1.000
    H11      H        0.70420    0.88890    0.15040    1.000
    C17      C        0.58140    0.82560    0.09820    1.000
    H12      H        0.55890    0.77670    0.13830    1.000
    C18      C        0.52920    0.83430    0.02930    1.000
    O3       O        0.78066    0.35769    0.68097    1.000
    N5       N        0.10456    0.59846    0.91160    1.000
    N6       N        0.22292    0.66332    0.00725    1.000
    C19      C        0.96320    0.50460    0.83100    1.000
    H13      H        0.93270    0.50430    0.88550    1.000
    C20      C        0.05380    0.55050    0.83000    1.000
    C21      C        0.18270    0.60700    0.93780    1.000
    H14      H        0.20630    0.57550    0.90880    1.000
    C22      C        0.09140    0.65500    0.97020    1.000
    C23      C        0.02480    0.67520    0.97640    1.000
    H15      H        0.97560    0.64860    0.93680    1.000
    C24      C        0.03460    0.73660    0.04410    1.000
    H16      H        0.99140    0.75260    0.04960    1.000
    C25      C        0.10750    0.77520    0.10450    1.000
    H17      H        0.11110    0.81530    0.15040    1.000
    C26      C        0.17440    0.75580    0.09820    1.000
    H18      H        0.22330    0.78220    0.13830    1.000
    C27      C        0.16570    0.69490    0.02930    1.000
    O4       O        0.57703    0.35769    0.81903    1.000
    N7       N        0.49390    0.59846    0.58840    1.000
    N8       N        0.44040    0.66332    0.49275    1.000
    C28      C        0.54140    0.50460    0.66900    1.000
    H19      H        0.57160    0.50430    0.61450    1.000
    C29      C        0.49670    0.55050    0.67000    1.000
    C30      C        0.42430    0.60700    0.56220    1.000
    H20      H        0.36920    0.57550    0.59120    1.000
    C31      C        0.56360    0.65500    0.52980    1.000
    C32      C        0.65040    0.67520    0.52360    1.000
    H21      H        0.67300    0.64860    0.56320    1.000
    C33      C        0.70200    0.73660    0.45590    1.000
    H22      H        0.76120    0.75260    0.45040    1.000
    C34      C        0.66770    0.77520    0.39550    1.000
    H23      H        0.70420    0.81530    0.34960    1.000
    C35      C        0.58140    0.75580    0.40180    1.000
    H24      H        0.55890    0.78220    0.36170    1.000
    C36      C        0.52920    0.69490    0.47070    1.000
    O5       O        0.78066    0.42297    0.81903    1.000
    N9       N        0.10456    0.50610    0.58840    1.000
    N10      N        0.22292    0.55960    0.49275    1.000
    C37      C        0.96320    0.45860    0.66900    1.000
    H25      H        0.93270    0.42840    0.61450    1.000
    C38      C        0.05380    0.50330    0.67000    1.000
    C39      C        0.18270    0.57570    0.56220    1.000
    H26      H        0.20630    0.63080    0.59120    1.000
    C40      C        0.09140    0.43640    0.52980    1.000
    C41      C        0.02480    0.34960    0.52360    1.000
    H27      H        0.97560    0.32700    0.56320    1.000
    C42      C        0.03460    0.29800    0.45590    1.000
    H28      H        0.99140    0.23880    0.45040    1.000
    C43      C        0.10750    0.33230    0.39550    1.000
    H29      H        0.11110    0.29580    0.34960    1.000
    C44      C        0.17440    0.41860    0.40180    1.000
    H30      H        0.22330    0.44110    0.36170    1.000
    C45      C        0.16570    0.47080    0.47070    1.000
    O6       O        0.64231    0.21934    0.81903    1.000
    N11      N        0.40154    0.89544    0.58840    1.000
    N12      N        0.33668    0.77708    0.49275    1.000
    C46      C        0.49540    0.03680    0.66900    1.000
    H31      H        0.49570    0.06730    0.61450    1.000
    C47      C        0.44950    0.94620    0.67000    1.000
    C48      C        0.39300    0.81730    0.56220    1.000
    H32      H        0.42450    0.79370    0.59120    1.000
    C49      C        0.34500    0.90860    0.52980    1.000
    C50      C        0.32480    0.97520    0.52360    1.000
    H33      H        0.35140    0.02440    0.56320    1.000
    C51      C        0.26340    0.96540    0.45590    1.000
    H34      H        0.24740    0.00860    0.45040    1.000
    C52      C        0.22480    0.89250    0.39550    1.000
    H35      H        0.18470    0.88890    0.34960    1.000
    C53      C        0.24420    0.82560    0.40180    1.000
    H36      H        0.21780    0.77670    0.36170    1.000
    C54      C        0.30510    0.83430    0.47070    1.000
    O7       O        0.35769    0.57703    0.31903    1.000
    N13      N        0.59846    0.49390    0.08840    1.000
    N14      N        0.66332    0.44040    0.99275    1.000
    C55      C        0.50460    0.54140    0.16900    1.000
    H37      H        0.50430    0.57160    0.11450    1.000
    C56      C        0.55050    0.49670    0.17000    1.000
    C57      C        0.60700    0.42430    0.06220    1.000
    H38      H        0.57550    0.36920    0.09120    1.000
    C58      C        0.65500    0.56360    0.02980    1.000
    C59      C        0.67520    0.65040    0.02360    1.000
    H39      H        0.64860    0.67300    0.06320    1.000
    C60      C        0.73660    0.70200    0.95590    1.000
    H40      H        0.75260    0.76120    0.95040    1.000
    C61      C        0.77520    0.66770    0.89550    1.000
    H41      H        0.81530    0.70420    0.84960    1.000
    C62      C        0.75580    0.58140    0.90180    1.000
    H42      H        0.78220    0.55890    0.86170    1.000
    C63      C        0.69490    0.52920    0.97070    1.000
    O8       O        0.42297    0.78066    0.31903    1.000
    N15      N        0.50610    0.10456    0.08840    1.000
    N16      N        0.55960    0.22292    0.99275    1.000
    C64      C        0.45860    0.96320    0.16900    1.000
    H43      H        0.42840    0.93270    0.11450    1.000
    C65      C        0.50330    0.05380    0.17000    1.000
    C66      C        0.57570    0.18270    0.06220    1.000
    H44      H        0.63080    0.20630    0.09120    1.000
    C67      C        0.43640    0.09140    0.02980    1.000
    C68      C        0.34960    0.02480    0.02360    1.000
    H45      H        0.32700    0.97560    0.06320    1.000
    C69      C        0.29800    0.03460    0.95590    1.000
    H46      H        0.23880    0.99140    0.95040    1.000
    C70      C        0.33230    0.10750    0.89550    1.000
    H47      H        0.29580    0.11110    0.84960    1.000
    C71      C        0.41860    0.17440    0.90180    1.000
    H48      H        0.44110    0.22330    0.86170    1.000
    C72      C        0.47080    0.16570    0.97070    1.000
    O9       O        0.21934    0.64231    0.31903    1.000
    N17      N        0.89544    0.40154    0.08840    1.000
    N18      N        0.77708    0.33668    0.99275    1.000
    C73      C        0.03680    0.49540    0.16900    1.000
    H49      H        0.06730    0.49570    0.11450    1.000
    C74      C        0.94620    0.44950    0.17000    1.000
    C75      C        0.81730    0.39300    0.06220    1.000
    H50      H        0.79370    0.42450    0.09120    1.000
    C76      C        0.90860    0.34500    0.02980    1.000
    C77      C        0.97520    0.32480    0.02360    1.000
    H51      H        0.02440    0.35140    0.06320    1.000
    C78      C        0.96540    0.26340    0.95590    1.000
    H52      H        0.00860    0.24740    0.95040    1.000
    C79      C        0.89250    0.22480    0.89550    1.000
    H53      H        0.88890    0.18470    0.84960    1.000
    C80      C        0.82560    0.24420    0.90180    1.000
    H54      H        0.77670    0.21780    0.86170    1.000
    C81      C        0.83430    0.30510    0.97070    1.000
    O10      O        0.42297    0.64231    0.18097    1.000
    N19      N        0.50610    0.40154    0.41160    1.000
    N20      N        0.55960    0.33668    0.50725    1.000
    C82      C        0.45860    0.49540    0.33100    1.000
    H55      H        0.42840    0.49570    0.38550    1.000
    C83      C        0.50330    0.44950    0.33000    1.000
    C84      C        0.57570    0.39300    0.43780    1.000
    H56      H        0.63080    0.42450    0.40880    1.000
    C85      C        0.43640    0.34500    0.47020    1.000
    C86      C        0.34960    0.32480    0.47640    1.000
    H57      H        0.32700    0.35140    0.43680    1.000
    C87      C        0.29800    0.26340    0.54410    1.000
    H58      H        0.23880    0.24740    0.54960    1.000
    C88      C        0.33230    0.22480    0.60450    1.000
    H59      H        0.29580    0.18470    0.65040    1.000
    C89      C        0.41860    0.24420    0.59820    1.000
    H60      H        0.44110    0.21780    0.63830    1.000
    C90      C        0.47080    0.30510    0.52930    1.000
    O11      O        0.21934    0.57703    0.18097    1.000
    N21      N        0.89544    0.49390    0.41160    1.000
    N22      N        0.77708    0.44040    0.50725    1.000
    C91      C        0.03680    0.54140    0.33100    1.000
    H61      H        0.06730    0.57160    0.38550    1.000
    C92      C        0.94620    0.49670    0.33000    1.000
    C93      C        0.81730    0.42430    0.43780    1.000
    H62      H        0.79370    0.36920    0.40880    1.000
    C94      C        0.90860    0.56360    0.47020    1.000
    C95      C        0.97520    0.65040    0.47640    1.000
    H63      H        0.02440    0.67300    0.43680    1.000
    C96      C        0.96540    0.70200    0.54410    1.000
    H64      H        0.00860    0.76120    0.54960    1.000
    C97      C        0.89250    0.66770    0.60450    1.000
    H65      H        0.88890    0.70420    0.65040    1.000
    C98      C        0.82560    0.58140    0.59820    1.000
    H66      H        0.77670    0.55890    0.63830    1.000
    C99      C        0.83430    0.52920    0.52930    1.000
    O12      O        0.35769    0.78066    0.18097    1.000
    N23      N        0.59846    0.10456    0.41160    1.000
    N24      N        0.66332    0.22292    0.50725    1.000
    C100     C        0.50460    0.96320    0.33100    1.000
    H67      H        0.50430    0.93270    0.38550    1.000
    C101     C        0.55050    0.05380    0.33000    1.000
    C102     C        0.60700    0.18270    0.43780    1.000
    H68      H        0.57550    0.20630    0.40880    1.000
    C103     C        0.65500    0.09140    0.47020    1.000
    C104     C        0.67520    0.02480    0.47640    1.000
    H69      H        0.64860    0.97560    0.43680    1.000
    C105     C        0.73660    0.03460    0.54410    1.000
    H70      H        0.75260    0.99140    0.54960    1.000
    C106     C        0.77520    0.10750    0.60450    1.000
    H71      H        0.81530    0.11110    0.65040    1.000
    C107     C        0.75580    0.17440    0.59820    1.000
    H72      H        0.78220    0.22330    0.63830    1.000
    C108     C        0.69490    0.16570    0.52930    1.000
    Mn1      Mn       0.66667    0.33333    0.60147    1.000
    Mn2      Mn       0.66667    0.33333    0.89853    1.000
    Mn3      Mn       0.33333    0.66667    0.39853    1.000
    Mn4      Mn       0.33333    0.66667    0.10147    1.000
    C109     C        0.59097    0.40903    0.75000    1.000
    C110     C        0.54143    0.45857    0.75000    1.000
    C111     C        0.45026    0.54974    0.75000    1.000
    H73      H        0.41960    0.58040    0.75000    1.000
    C112     C        0.59097    0.18194    0.75000    1.000
    C113     C        0.54143    0.08286    0.75000    1.000
    C114     C        0.45026    0.90052    0.75000    1.000
    H74      H        0.41960    0.83920    0.75000    1.000
    C115     C        0.81806    0.40903    0.75000    1.000
    C116     C        0.91714    0.45857    0.75000    1.000
    C117     C        0.09948    0.54974    0.75000    1.000
    H75      H        0.16080    0.58040    0.75000    1.000
    C118     C        0.40903    0.59097    0.25000    1.000
    C119     C        0.45857    0.54143    0.25000    1.000
    C120     C        0.54974    0.45026    0.25000    1.000
    H76      H        0.58040    0.41960    0.25000    1.000
    C121     C        0.40903    0.81806    0.25000    1.000
    C122     C        0.45857    0.91714    0.25000    1.000
    C123     C        0.54974    0.09948    0.25000    1.000
    H77      H        0.58040    0.16080    0.25000    1.000
    C124     C        0.18194    0.59097    0.25000    1.000
    C125     C        0.08286    0.54143    0.25000    1.000
    C126     C        0.90052    0.45026    0.25000    1.000
    H78      H        0.83920    0.41960    0.25000    1.000
