# CIF file generated by openbabel 3.1.0, see https://openbabel.org
data_I
_chemical_name_common 'image0'
_cell_length_a 15.458
_cell_length_b 14.22
_cell_length_c 14.245
_cell_angle_alpha 90
_cell_angle_beta 99.84
_cell_angle_gamma 90
_space_group_name_H-M_alt 'P 1'
_space_group_name_Hall 'P 1'
loop_
    _symmetry_equiv_pos_as_xyz
    x,y,z
loop_
    _atom_site_label
    _atom_site_type_symbol
    _atom_site_fract_x
    _atom_site_fract_y
    _atom_site_fract_z
    _atom_site_occupancy
    O1       O        0.62946    0.31181    0.82349    1.000
    O2       O        0.75079    0.22824    0.86431    1.000
    O3       O        0.99836    0.67130    0.90214    1.000
    O4       O        0.88622    0.58300    0.91335    1.000
    N1       N        0.72903    0.55350    0.97270    1.000
    N2       N        0.84681    0.65152    0.11335    1.000
    C1       C        0.70780    0.30150    0.86480    1.000
    C2       C        0.75240    0.38560    0.91800    1.000
    H1       H        0.80510    0.40120    0.89270    1.000
    H2       H        0.76970    0.36960    0.98470    1.000
    C3       C        0.69300    0.47090    0.90930    1.000
    H3       H        0.63710    0.45210    0.92570    1.000
    H4       H        0.68220    0.49150    0.84340    1.000
    C4       C        0.73230    0.52780    0.07640    1.000
    H5       H        0.67320    0.51520    0.08730    1.000
    H6       H        0.76630    0.47060    0.09010    1.000
    C5       C        0.77260    0.60430    0.14320    1.000
    H7       H        0.72760    0.65020    0.14960    1.000
    H8       H        0.79230    0.57680    0.20550    1.000
    C6       C        0.87330    0.73340    0.17410    1.000
    H9       H        0.93300    0.75020    0.16870    1.000
    H10      H        0.87250    0.71680    0.24000    1.000
    C7       C        0.81460    0.81920    0.14660    1.000
    H11      H        0.75370    0.80010    0.14170    1.000
    H12      H        0.82660    0.86640    0.19620    1.000
    C8       C        0.67180    0.64060    0.94360    1.000
    H13      H        0.68500    0.68780    0.99310    1.000
    H14      H        0.61050    0.62360    0.93880    1.000
    C9       C        0.92240    0.58760    0.11370    1.000
    H15      H        0.95200    0.57860    0.17880    1.000
    H16      H        0.90100    0.52690    0.08900    1.000
    C10      C        0.98780    0.62320    0.05580    1.000
    H17      H        0.03960    0.58370    0.06710    1.000
    H18      H        0.00550    0.68620    0.07740    1.000
    C11      C        0.95300    0.62550    0.94890    1.000
    O5       O        0.45940    0.35910    0.85820    1.000
    H19      H        0.52560    0.36080    0.88400    1.000
    H20      H        0.43220    0.34470    0.80310    1.000
    O6       O        0.12946    0.81181    0.82349    1.000
    O7       O        0.25079    0.72824    0.86431    1.000
    O8       O        0.49836    0.17130    0.90214    1.000
    O9       O        0.38622    0.08300    0.91335    1.000
    N3       N        0.22903    0.05350    0.97270    1.000
    N4       N        0.34681    0.15152    0.11335    1.000
    C12      C        0.20780    0.80150    0.86480    1.000
    C13      C        0.25240    0.88560    0.91800    1.000
    H21      H        0.30510    0.90120    0.89270    1.000
    H22      H        0.26970    0.86960    0.98470    1.000
    C14      C        0.19300    0.97090    0.90930    1.000
    H23      H        0.13710    0.95210    0.92570    1.000
    H24      H        0.18220    0.99150    0.84340    1.000
    C15      C        0.23230    0.02780    0.07640    1.000
    H25      H        0.17320    0.01520    0.08730    1.000
    H26      H        0.26630    0.97060    0.09010    1.000
    C16      C        0.27260    0.10430    0.14320    1.000
    H27      H        0.22760    0.15020    0.14960    1.000
    H28      H        0.29230    0.07680    0.20550    1.000
    C17      C        0.37330    0.23340    0.17410    1.000
    H29      H        0.43300    0.25020    0.16870    1.000
    H30      H        0.37250    0.21680    0.24000    1.000
    C18      C        0.31460    0.31920    0.14660    1.000
    H31      H        0.25370    0.30010    0.14170    1.000
    H32      H        0.32660    0.36640    0.19620    1.000
    C19      C        0.17180    0.14060    0.94360    1.000
    H33      H        0.18500    0.18780    0.99310    1.000
    H34      H        0.11050    0.12360    0.93880    1.000
    C20      C        0.42240    0.08760    0.11370    1.000
    H35      H        0.45200    0.07860    0.17880    1.000
    H36      H        0.40100    0.02690    0.08900    1.000
    C21      C        0.48780    0.12320    0.05580    1.000
    H37      H        0.53960    0.08370    0.06710    1.000
    H38      H        0.50550    0.18620    0.07740    1.000
    C22      C        0.45300    0.12550    0.94890    1.000
    O10      O        0.95940    0.85910    0.85820    1.000
    H39      H        0.02560    0.86080    0.88400    1.000
    H40      H        0.93220    0.84470    0.80310    1.000
    O11      O        0.37054    0.31181    0.67651    1.000
    O12      O        0.24921    0.22824    0.63569    1.000
    O13      O        0.00164    0.67130    0.59786    1.000
    O14      O        0.11378    0.58300    0.58665    1.000
    N5       N        0.27097    0.55350    0.52730    1.000
    N6       N        0.15319    0.65152    0.38665    1.000
    C23      C        0.29220    0.30150    0.63520    1.000
    C24      C        0.24760    0.38560    0.58200    1.000
    H41      H        0.19490    0.40120    0.60730    1.000
    H42      H        0.23030    0.36960    0.51530    1.000
    C25      C        0.30700    0.47090    0.59070    1.000
    H43      H        0.36290    0.45210    0.57430    1.000
    H44      H        0.31780    0.49150    0.65660    1.000
    C26      C        0.26770    0.52780    0.42360    1.000
    H45      H        0.32680    0.51520    0.41270    1.000
    H46      H        0.23370    0.47060    0.40990    1.000
    C27      C        0.22740    0.60430    0.35680    1.000
    H47      H        0.27240    0.65020    0.35040    1.000
    H48      H        0.20770    0.57680    0.29450    1.000
    C28      C        0.12670    0.73340    0.32590    1.000
    H49      H        0.06700    0.75020    0.33130    1.000
    H50      H        0.12750    0.71680    0.26000    1.000
    C29      C        0.18540    0.81920    0.35340    1.000
    H51      H        0.24630    0.80010    0.35830    1.000
    H52      H        0.17340    0.86640    0.30380    1.000
    C30      C        0.32820    0.64060    0.55640    1.000
    H53      H        0.31500    0.68780    0.50690    1.000
    H54      H        0.38950    0.62360    0.56120    1.000
    C31      C        0.07760    0.58760    0.38630    1.000
    H55      H        0.04800    0.57860    0.32120    1.000
    H56      H        0.09900    0.52690    0.41100    1.000
    C32      C        0.01220    0.62320    0.44420    1.000
    H57      H        0.96040    0.58370    0.43290    1.000
    H58      H        0.99450    0.68620    0.42260    1.000
    C33      C        0.04700    0.62550    0.55110    1.000
    O15      O        0.54060    0.35910    0.64180    1.000
    H59      H        0.47440    0.36080    0.61600    1.000
    H60      H        0.56780    0.34470    0.69690    1.000
    O16      O        0.87054    0.81181    0.67651    1.000
    O17      O        0.74921    0.72824    0.63569    1.000
    O18      O        0.50164    0.17130    0.59786    1.000
    O19      O        0.61378    0.08300    0.58665    1.000
    N7       N        0.77097    0.05350    0.52730    1.000
    N8       N        0.65319    0.15152    0.38665    1.000
    C34      C        0.79220    0.80150    0.63520    1.000
    C35      C        0.74760    0.88560    0.58200    1.000
    H61      H        0.69490    0.90120    0.60730    1.000
    H62      H        0.73030    0.86960    0.51530    1.000
    C36      C        0.80700    0.97090    0.59070    1.000
    H63      H        0.86290    0.95210    0.57430    1.000
    H64      H        0.81780    0.99150    0.65660    1.000
    C37      C        0.76770    0.02780    0.42360    1.000
    H65      H        0.82680    0.01520    0.41270    1.000
    H66      H        0.73370    0.97060    0.40990    1.000
    C38      C        0.72740    0.10430    0.35680    1.000
    H67      H        0.77240    0.15020    0.35040    1.000
    H68      H        0.70770    0.07680    0.29450    1.000
    C39      C        0.62670    0.23340    0.32590    1.000
    H69      H        0.56700    0.25020    0.33130    1.000
    H70      H        0.62750    0.21680    0.26000    1.000
    C40      C        0.68540    0.31920    0.35340    1.000
    H71      H        0.74630    0.30010    0.35830    1.000
    H72      H        0.67340    0.36640    0.30380    1.000
    C41      C        0.82820    0.14060    0.55640    1.000
    H73      H        0.81500    0.18780    0.50690    1.000
    H74      H        0.88950    0.12360    0.56120    1.000
    C42      C        0.57760    0.08760    0.38630    1.000
    H75      H        0.54800    0.07860    0.32120    1.000
    H76      H        0.59900    0.02690    0.41100    1.000
    C43      C        0.51220    0.12320    0.44420    1.000
    H77      H        0.46040    0.08370    0.43290    1.000
    H78      H        0.49450    0.18620    0.42260    1.000
    C44      C        0.54700    0.12550    0.55110    1.000
    O20      O        0.04060    0.85910    0.64180    1.000
    H79      H        0.97440    0.86080    0.61600    1.000
    H80      H        0.06780    0.84470    0.69690    1.000
    O21      O        0.37054    0.68819    0.17651    1.000
    O22      O        0.24921    0.77176    0.13569    1.000
    O23      O        0.00164    0.32870    0.09786    1.000
    O24      O        0.11378    0.41700    0.08665    1.000
    N9       N        0.27097    0.44650    0.02730    1.000
    N10      N        0.15319    0.34848    0.88665    1.000
    C45      C        0.29220    0.69850    0.13520    1.000
    C46      C        0.24760    0.61440    0.08200    1.000
    H81      H        0.19490    0.59880    0.10730    1.000
    H82      H        0.23030    0.63040    0.01530    1.000
    C47      C        0.30700    0.52910    0.09070    1.000
    H83      H        0.36290    0.54790    0.07430    1.000
    H84      H        0.31780    0.50850    0.15660    1.000
    C48      C        0.26770    0.47220    0.92360    1.000
    H85      H        0.32680    0.48480    0.91270    1.000
    H86      H        0.23370    0.52940    0.90990    1.000
    C49      C        0.22740    0.39570    0.85680    1.000
    H87      H        0.27240    0.34980    0.85040    1.000
    H88      H        0.20770    0.42320    0.79450    1.000
    C50      C        0.12670    0.26660    0.82590    1.000
    H89      H        0.06700    0.24980    0.83130    1.000
    H90      H        0.12750    0.28320    0.76000    1.000
    C51      C        0.18540    0.18080    0.85340    1.000
    H91      H        0.24630    0.19990    0.85830    1.000
    H92      H        0.17340    0.13360    0.80380    1.000
    C52      C        0.32820    0.35940    0.05640    1.000
    H93      H        0.31500    0.31220    0.00690    1.000
    H94      H        0.38950    0.37640    0.06120    1.000
    C53      C        0.07760    0.41240    0.88630    1.000
    H95      H        0.04800    0.42140    0.82120    1.000
    H96      H        0.09900    0.47310    0.91100    1.000
    C54      C        0.01220    0.37680    0.94420    1.000
    H97      H        0.96040    0.41630    0.93290    1.000
    H98      H        0.99450    0.31380    0.92260    1.000
    C55      C        0.04700    0.37450    0.05110    1.000
    O25      O        0.54060    0.64090    0.14180    1.000
    H99      H        0.47440    0.63920    0.11600    1.000
    H100     H        0.56780    0.65530    0.19690    1.000
    O26      O        0.87054    0.18819    0.17651    1.000
    O27      O        0.74921    0.27176    0.13569    1.000
    O28      O        0.50164    0.82870    0.09786    1.000
    O29      O        0.61378    0.91700    0.08665    1.000
    N11      N        0.77097    0.94650    0.02730    1.000
    N12      N        0.65319    0.84848    0.88665    1.000
    C56      C        0.79220    0.19850    0.13520    1.000
    C57      C        0.74760    0.11440    0.08200    1.000
    H101     H        0.69490    0.09880    0.10730    1.000
    H102     H        0.73030    0.13040    0.01530    1.000
    C58      C        0.80700    0.02910    0.09070    1.000
    H103     H        0.86290    0.04790    0.07430    1.000
    H104     H        0.81780    0.00850    0.15660    1.000
    C59      C        0.76770    0.97220    0.92360    1.000
    H105     H        0.82680    0.98480    0.91270    1.000
    H106     H        0.73370    0.02940    0.90990    1.000
    C60      C        0.72740    0.89570    0.85680    1.000
    H107     H        0.77240    0.84980    0.85040    1.000
    H108     H        0.70770    0.92320    0.79450    1.000
    C61      C        0.62670    0.76660    0.82590    1.000
    H109     H        0.56700    0.74980    0.83130    1.000
    H110     H        0.62750    0.78320    0.76000    1.000
    C62      C        0.68540    0.68080    0.85340    1.000
    H111     H        0.74630    0.69990    0.85830    1.000
    H112     H        0.67340    0.63360    0.80380    1.000
    C63      C        0.82820    0.85940    0.05640    1.000
    H113     H        0.81500    0.81220    0.00690    1.000
    H114     H        0.88950    0.87640    0.06120    1.000
    C64      C        0.57760    0.91240    0.88630    1.000
    H115     H        0.54800    0.92140    0.82120    1.000
    H116     H        0.59900    0.97310    0.91100    1.000
    C65      C        0.51220    0.87680    0.94420    1.000
    H117     H        0.46040    0.91630    0.93290    1.000
    H118     H        0.49450    0.81380    0.92260    1.000
    C66      C        0.54700    0.87450    0.05110    1.000
    O30      O        0.04060    0.14090    0.14180    1.000
    H119     H        0.97440    0.13920    0.11600    1.000
    H120     H        0.06780    0.15530    0.19690    1.000
    O31      O        0.62946    0.68819    0.32349    1.000
    O32      O        0.75079    0.77176    0.36431    1.000
    O33      O        0.99836    0.32870    0.40214    1.000
    O34      O        0.88622    0.41700    0.41335    1.000
    N13      N        0.72903    0.44650    0.47270    1.000
    N14      N        0.84681    0.34848    0.61335    1.000
    C67      C        0.70780    0.69850    0.36480    1.000
    C68      C        0.75240    0.61440    0.41800    1.000
    H121     H        0.80510    0.59880    0.39270    1.000
    H122     H        0.76970    0.63040    0.48470    1.000
    C69      C        0.69300    0.52910    0.40930    1.000
    H123     H        0.63710    0.54790    0.42570    1.000
    H124     H        0.68220    0.50850    0.34340    1.000
    C70      C        0.73230    0.47220    0.57640    1.000
    H125     H        0.67320    0.48480    0.58730    1.000
    H126     H        0.76630    0.52940    0.59010    1.000
    C71      C        0.77260    0.39570    0.64320    1.000
    H127     H        0.72760    0.34980    0.64960    1.000
    H128     H        0.79230    0.42320    0.70550    1.000
    C72      C        0.87330    0.26660    0.67410    1.000
    H129     H        0.93300    0.24980    0.66870    1.000
    H130     H        0.87250    0.28320    0.74000    1.000
    C73      C        0.81460    0.18080    0.64660    1.000
    H131     H        0.75370    0.19990    0.64170    1.000
    H132     H        0.82660    0.13360    0.69620    1.000
    C74      C        0.67180    0.35940    0.44360    1.000
    H133     H        0.68500    0.31220    0.49310    1.000
    H134     H        0.61050    0.37640    0.43880    1.000
    C75      C        0.92240    0.41240    0.61370    1.000
    H135     H        0.95200    0.42140    0.67880    1.000
    H136     H        0.90100    0.47310    0.58900    1.000
    C76      C        0.98780    0.37680    0.55580    1.000
    H137     H        0.03960    0.41630    0.56710    1.000
    H138     H        0.00550    0.31380    0.57740    1.000
    C77      C        0.95300    0.37450    0.44890    1.000
    O35      O        0.45940    0.64090    0.35820    1.000
    H139     H        0.52560    0.63920    0.38400    1.000
    H140     H        0.43220    0.65530    0.30310    1.000
    O36      O        0.12946    0.18819    0.32349    1.000
    O37      O        0.25079    0.27176    0.36431    1.000
    O38      O        0.49836    0.82870    0.40214    1.000
    O39      O        0.38622    0.91700    0.41335    1.000
    N15      N        0.22903    0.94650    0.47270    1.000
    N16      N        0.34681    0.84848    0.61335    1.000
    C78      C        0.20780    0.19850    0.36480    1.000
    C79      C        0.25240    0.11440    0.41800    1.000
    H141     H        0.30510    0.09880    0.39270    1.000
    H142     H        0.26970    0.13040    0.48470    1.000
    C80      C        0.19300    0.02910    0.40930    1.000
    H143     H        0.13710    0.04790    0.42570    1.000
    H144     H        0.18220    0.00850    0.34340    1.000
    C81      C        0.23230    0.97220    0.57640    1.000
    H145     H        0.17320    0.98480    0.58730    1.000
    H146     H        0.26630    0.02940    0.59010    1.000
    C82      C        0.27260    0.89570    0.64320    1.000
    H147     H        0.22760    0.84980    0.64960    1.000
    H148     H        0.29230    0.92320    0.70550    1.000
    C83      C        0.37330    0.76660    0.67410    1.000
    H149     H        0.43300    0.74980    0.66870    1.000
    H150     H        0.37250    0.78320    0.74000    1.000
    C84      C        0.31460    0.68080    0.64660    1.000
    H151     H        0.25370    0.69990    0.64170    1.000
    H152     H        0.32660    0.63360    0.69620    1.000
    C85      C        0.17180    0.85940    0.44360    1.000
    H153     H        0.18500    0.81220    0.49310    1.000
    H154     H        0.11050    0.87640    0.43880    1.000
    C86      C        0.42240    0.91240    0.61370    1.000
    H155     H        0.45200    0.92140    0.67880    1.000
    H156     H        0.40100    0.97310    0.58900    1.000
    C87      C        0.48780    0.87680    0.55580    1.000
    H157     H        0.53960    0.91630    0.56710    1.000
    H158     H        0.50550    0.81380    0.57740    1.000
    C88      C        0.45300    0.87450    0.44890    1.000
    O40      O        0.95940    0.14090    0.35820    1.000
    H159     H        0.02560    0.13920    0.38400    1.000
    H160     H        0.93220    0.15530    0.30310    1.000
    Gd1      Gd       0.50000    0.23608    0.75000    1.000
    Gd2      Gd       0.00000    0.73608    0.75000    1.000
    Gd3      Gd       0.50000    0.76392    0.25000    1.000
    Gd4      Gd       0.00000    0.26392    0.25000    1.000
