# CIF file generated by openbabel 3.1.0, see https://openbabel.org
data_I
_chemical_name_common 'image0'
_cell_length_a 24.085
_cell_length_b 14.393
_cell_length_c 8.7122
_cell_angle_alpha 90
_cell_angle_beta 94.26
_cell_angle_gamma 90
_space_group_name_H-M_alt 'P 1'
_space_group_name_Hall 'P 1'
loop_
    _symmetry_equiv_pos_as_xyz
    x,y,z
loop_
    _atom_site_label
    _atom_site_type_symbol
    _atom_site_fract_x
    _atom_site_fract_y
    _atom_site_fract_z
    _atom_site_occupancy
    P1       P        0.33817    0.73198    0.42986    1.000
    P2       P        0.32603    0.96913    0.93930    1.000
    P3       P        0.49158    0.17888    0.52626    1.000
    Al1      Al       0.27811    0.87641    0.62404    1.000
    Al2      Al       0.45019    0.62979    0.50032    1.000
    Al3      Al       0.40212    0.88885    0.24087    1.000
    O1       O        0.32489    0.79180    0.56850    1.000
    O2       O        0.35818    0.78820    0.30050    1.000
    O3       O        0.38148    0.66110    0.49290    1.000
    O4       O        0.28631    0.67610    0.37490    1.000
    O5       O        0.34989    0.90790    0.06880    1.000
    O6       O        0.36953    0.97060    0.37470    1.000
    O7       O        0.27915    0.96960    0.49810    1.000
    O8       O        0.29811    0.90500    0.81350    1.000
    O9       O        0.46013    0.55540    0.65460    1.000
    O10      O        0.46549    0.56530    0.34430    1.000
    O11      O        0.44435    0.99050    0.16440    1.000
    O12      O        0.46963    0.12580    0.38220    1.000
    O13      O        0.49303    0.72326    0.52910    1.000
    O14      O        0.44306    0.80610    0.12600    1.000
    O15      O        0.45812    0.87160    0.40210    1.000
    H1       H        0.43400    0.00100    0.10200    1.000
    P4       P        0.83817    0.23198    0.42986    1.000
    P5       P        0.82603    0.46913    0.93930    1.000
    P6       P        0.99158    0.67888    0.52626    1.000
    Al4      Al       0.77811    0.37641    0.62404    1.000
    Al5      Al       0.95019    0.12979    0.50032    1.000
    Al6      Al       0.90212    0.38885    0.24087    1.000
    O16      O        0.82489    0.29180    0.56850    1.000
    O17      O        0.85818    0.28820    0.30050    1.000
    O18      O        0.88148    0.16110    0.49290    1.000
    O19      O        0.78631    0.17610    0.37490    1.000
    O20      O        0.84989    0.40790    0.06880    1.000
    O21      O        0.86953    0.47060    0.37470    1.000
    O22      O        0.77915    0.46960    0.49810    1.000
    O23      O        0.79811    0.40500    0.81350    1.000
    O24      O        0.96013    0.05540    0.65460    1.000
    O25      O        0.96549    0.06530    0.34430    1.000
    O26      O        0.94435    0.49050    0.16440    1.000
    O27      O        0.96963    0.62580    0.38220    1.000
    O28      O        0.99303    0.22326    0.52910    1.000
    O29      O        0.94306    0.30610    0.12600    1.000
    O30      O        0.95812    0.37160    0.40210    1.000
    H2       H        0.93400    0.50100    0.10200    1.000
    P7       P        0.66183    0.73198    0.07014    1.000
    P8       P        0.67397    0.96913    0.56070    1.000
    P9       P        0.50842    0.17888    0.97374    1.000
    Al7      Al       0.72189    0.87641    0.87596    1.000
    Al8      Al       0.54981    0.62979    0.99968    1.000
    Al9      Al       0.59788    0.88885    0.25913    1.000
    O31      O        0.67511    0.79180    0.93150    1.000
    O32      O        0.64182    0.78820    0.19950    1.000
    O33      O        0.61852    0.66110    0.00710    1.000
    O34      O        0.71369    0.67610    0.12510    1.000
    O35      O        0.65011    0.90790    0.43120    1.000
    O36      O        0.63047    0.97060    0.12530    1.000
    O37      O        0.72085    0.96960    0.00190    1.000
    O38      O        0.70189    0.90500    0.68650    1.000
    O39      O        0.53987    0.55540    0.84540    1.000
    O40      O        0.53451    0.56530    0.15570    1.000
    O41      O        0.55565    0.99050    0.33560    1.000
    O42      O        0.53037    0.12580    0.11780    1.000
    O43      O        0.50697    0.72326    0.97090    1.000
    O44      O        0.55694    0.80610    0.37400    1.000
    O45      O        0.54188    0.87160    0.09790    1.000
    H3       H        0.56600    0.00100    0.39800    1.000
    P10      P        0.16183    0.23198    0.07014    1.000
    P11      P        0.17397    0.46913    0.56070    1.000
    P12      P        0.00842    0.67888    0.97374    1.000
    Al10     Al       0.22189    0.37641    0.87596    1.000
    Al11     Al       0.04981    0.12979    0.99968    1.000
    Al12     Al       0.09788    0.38885    0.25913    1.000
    O46      O        0.17511    0.29180    0.93150    1.000
    O47      O        0.14182    0.28820    0.19950    1.000
    O48      O        0.11852    0.16110    0.00710    1.000
    O49      O        0.21369    0.17610    0.12510    1.000
    O50      O        0.15011    0.40790    0.43120    1.000
    O51      O        0.13047    0.47060    0.12530    1.000
    O52      O        0.22085    0.46960    0.00190    1.000
    O53      O        0.20189    0.40500    0.68650    1.000
    O54      O        0.03987    0.05540    0.84540    1.000
    O55      O        0.03451    0.06530    0.15570    1.000
    O56      O        0.05565    0.49050    0.33560    1.000
    O57      O        0.03037    0.62580    0.11780    1.000
    O58      O        0.00697    0.22326    0.97090    1.000
    O59      O        0.05694    0.30610    0.37400    1.000
    O60      O        0.04188    0.37160    0.09790    1.000
    H4       H        0.06600    0.50100    0.39800    1.000
    P13      P        0.66183    0.26802    0.57014    1.000
    P14      P        0.67397    0.03087    0.06070    1.000
    P15      P        0.50842    0.82112    0.47374    1.000
    Al13     Al       0.72189    0.12359    0.37596    1.000
    Al14     Al       0.54981    0.37021    0.49968    1.000
    Al15     Al       0.59788    0.11115    0.75913    1.000
    O61      O        0.67511    0.20820    0.43150    1.000
    O62      O        0.64182    0.21180    0.69950    1.000
    O63      O        0.61852    0.33890    0.50710    1.000
    O64      O        0.71369    0.32390    0.62510    1.000
    O65      O        0.65011    0.09210    0.93120    1.000
    O66      O        0.63047    0.02940    0.62530    1.000
    O67      O        0.72085    0.03040    0.50190    1.000
    O68      O        0.70189    0.09500    0.18650    1.000
    O69      O        0.53987    0.44460    0.34540    1.000
    O70      O        0.53451    0.43470    0.65570    1.000
    O71      O        0.55565    0.00950    0.83560    1.000
    O72      O        0.53037    0.87420    0.61780    1.000
    O73      O        0.50697    0.27674    0.47090    1.000
    O74      O        0.55694    0.19390    0.87400    1.000
    O75      O        0.54188    0.12840    0.59790    1.000
    H5       H        0.56600    0.99900    0.89800    1.000
    P16      P        0.16183    0.76802    0.57014    1.000
    P17      P        0.17397    0.53087    0.06070    1.000
    P18      P        0.00842    0.32112    0.47374    1.000
    Al16     Al       0.22189    0.62359    0.37596    1.000
    Al17     Al       0.04981    0.87021    0.49968    1.000
    Al18     Al       0.09788    0.61115    0.75913    1.000
    O76      O        0.17511    0.70820    0.43150    1.000
    O77      O        0.14182    0.71180    0.69950    1.000
    O78      O        0.11852    0.83890    0.50710    1.000
    O79      O        0.21369    0.82390    0.62510    1.000
    O80      O        0.15011    0.59210    0.93120    1.000
    O81      O        0.13047    0.52940    0.62530    1.000
    O82      O        0.22085    0.53040    0.50190    1.000
    O83      O        0.20189    0.59500    0.18650    1.000
    O84      O        0.03987    0.94460    0.34540    1.000
    O85      O        0.03451    0.93470    0.65570    1.000
    O86      O        0.05565    0.50950    0.83560    1.000
    O87      O        0.03037    0.37420    0.61780    1.000
    O88      O        0.00697    0.77674    0.47090    1.000
    O89      O        0.05694    0.69390    0.87400    1.000
    O90      O        0.04188    0.62840    0.59790    1.000
    H6       H        0.06600    0.49900    0.89800    1.000
    P19      P        0.33817    0.26802    0.92986    1.000
    P20      P        0.32603    0.03087    0.43930    1.000
    P21      P        0.49158    0.82112    0.02626    1.000
    Al19     Al       0.27811    0.12359    0.12404    1.000
    Al20     Al       0.45019    0.37021    0.00032    1.000
    Al21     Al       0.40212    0.11115    0.74087    1.000
    O91      O        0.32489    0.20820    0.06850    1.000
    O92      O        0.35818    0.21180    0.80050    1.000
    O93      O        0.38148    0.33890    0.99290    1.000
    O94      O        0.28631    0.32390    0.87490    1.000
    O95      O        0.34989    0.09210    0.56880    1.000
    O96      O        0.36953    0.02940    0.87470    1.000
    O97      O        0.27915    0.03040    0.99810    1.000
    O98      O        0.29811    0.09500    0.31350    1.000
    O99      O        0.46013    0.44460    0.15460    1.000
    O100     O        0.46549    0.43470    0.84430    1.000
    O101     O        0.44435    0.00950    0.66440    1.000
    O102     O        0.46963    0.87420    0.88220    1.000
    O103     O        0.49303    0.27674    0.02910    1.000
    O104     O        0.44306    0.19390    0.62600    1.000
    O105     O        0.45812    0.12840    0.90210    1.000
    H7       H        0.43400    0.99900    0.60200    1.000
    P22      P        0.83817    0.76802    0.92986    1.000
    P23      P        0.82603    0.53087    0.43930    1.000
    P24      P        0.99158    0.32112    0.02626    1.000
    Al22     Al       0.77811    0.62359    0.12404    1.000
    Al23     Al       0.95019    0.87021    0.00032    1.000
    Al24     Al       0.90212    0.61115    0.74087    1.000
    O106     O        0.82489    0.70820    0.06850    1.000
    O107     O        0.85818    0.71180    0.80050    1.000
    O108     O        0.88148    0.83890    0.99290    1.000
    O109     O        0.78631    0.82390    0.87490    1.000
    O110     O        0.84989    0.59210    0.56880    1.000
    O111     O        0.86953    0.52940    0.87470    1.000
    O112     O        0.77915    0.53040    0.99810    1.000
    O113     O        0.79811    0.59500    0.31350    1.000
    O114     O        0.96013    0.94460    0.15460    1.000
    O115     O        0.96549    0.93470    0.84430    1.000
    O116     O        0.94435    0.50950    0.66440    1.000
    O117     O        0.96963    0.37420    0.88220    1.000
    O118     O        0.99303    0.77674    0.02910    1.000
    O119     O        0.94306    0.69390    0.62600    1.000
    O120     O        0.95812    0.62840    0.90210    1.000
    H8       H        0.93400    0.49900    0.60200    1.000
    P25      P        0.50000    0.49464    0.75000    1.000
    P26      P        0.00000    0.99464    0.75000    1.000
    P27      P        0.50000    0.50536    0.25000    1.000
    P28      P        0.00000    0.00536    0.25000    1.000
    Al25     Al       0.50000    0.05471    0.25000    1.000
    Al26     Al       0.00000    0.55471    0.25000    1.000
    Al27     Al       0.50000    0.94529    0.75000    1.000
    Al28     Al       0.00000    0.44529    0.75000    1.000
