# CIF file generated by openbabel 3.1.0, see https://openbabel.org
data_I
_chemical_name_common 'image0'
_cell_length_a 15.822
_cell_length_b 10.0614
_cell_length_c 18.6103
_cell_angle_alpha 90
_cell_angle_beta 104.292
_cell_angle_gamma 90
_space_group_name_H-M_alt 'P 1'
_space_group_name_Hall 'P 1'
loop_
    _symmetry_equiv_pos_as_xyz
    x,y,z
loop_
    _atom_site_label
    _atom_site_type_symbol
    _atom_site_fract_x
    _atom_site_fract_y
    _atom_site_fract_z
    _atom_site_occupancy
    V1       V        0.16162    0.12474    0.08518    1.000
    V2       V        0.74245    0.44856    0.78521    1.000
    V3       V        0.19140    0.91490    0.78090    1.000
    P1       P        0.84231    0.16633    0.83475    1.000
    P2       P        0.20657    0.11775    0.92207    1.000
    O1       O        0.77403    0.27390    0.83275    1.000
    O2       O        0.83535    0.51120    0.78992    1.000
    O3       O        0.83310    0.09580    0.76066    1.000
    O4       O        0.20289    0.99090    0.87543    1.000
    O5       O        0.20314    0.07060    0.99957    1.000
    O6       O        0.83721    0.06910    0.89728    1.000
    O7       O        0.28742    0.19850    0.92214    1.000
    O8       O        0.20400    0.14810    0.19204    1.000
    C1       C        0.94850    0.24250    0.85697    1.000
    H1       H        0.95280    0.30230    0.81570    1.000
    H2       H        0.95410    0.29810    0.90180    1.000
    C2       C        0.11230    0.21880    0.88590    1.000
    H3       H        0.11120    0.29150    0.92150    1.000
    H4       H        0.11810    0.26000    0.83910    1.000
    C3       C        0.02490    0.14490    0.87076    1.000
    H5       H        0.01910    0.08690    0.82690    1.000
    H6       H        0.02340    0.08790    0.91380    1.000
    H7       H        0.21500    0.20500    0.19600    1.000
    V4       V        0.66162    0.62474    0.08518    1.000
    V5       V        0.24245    0.94856    0.78521    1.000
    V6       V        0.69140    0.41490    0.78090    1.000
    P3       P        0.34231    0.66633    0.83475    1.000
    P4       P        0.70657    0.61775    0.92207    1.000
    O9       O        0.27403    0.77390    0.83275    1.000
    O10      O        0.33535    0.01120    0.78992    1.000
    O11      O        0.33310    0.59580    0.76066    1.000
    O12      O        0.70289    0.49090    0.87543    1.000
    O13      O        0.70314    0.57060    0.99957    1.000
    O14      O        0.33721    0.56910    0.89728    1.000
    O15      O        0.78742    0.69850    0.92214    1.000
    O16      O        0.70400    0.64810    0.19204    1.000
    C4       C        0.44850    0.74250    0.85697    1.000
    H8       H        0.45280    0.80230    0.81570    1.000
    H9       H        0.45410    0.79810    0.90180    1.000
    C5       C        0.61230    0.71880    0.88590    1.000
    H10      H        0.61120    0.79150    0.92150    1.000
    H11      H        0.61810    0.76000    0.83910    1.000
    C6       C        0.52490    0.64490    0.87076    1.000
    H12      H        0.51910    0.58690    0.82690    1.000
    H13      H        0.52340    0.58790    0.91380    1.000
    H14      H        0.71500    0.70500    0.19600    1.000
    V7       V        0.83838    0.12474    0.41482    1.000
    V8       V        0.25755    0.44856    0.71479    1.000
    V9       V        0.80860    0.91490    0.71910    1.000
    P5       P        0.15769    0.16633    0.66525    1.000
    P6       P        0.79343    0.11775    0.57793    1.000
    O17      O        0.22597    0.27390    0.66725    1.000
    O18      O        0.16465    0.51120    0.71008    1.000
    O19      O        0.16690    0.09580    0.73934    1.000
    O20      O        0.79711    0.99090    0.62457    1.000
    O21      O        0.79686    0.07060    0.50043    1.000
    O22      O        0.16279    0.06910    0.60272    1.000
    O23      O        0.71258    0.19850    0.57786    1.000
    O24      O        0.79600    0.14810    0.30796    1.000
    C7       C        0.05150    0.24250    0.64303    1.000
    H15      H        0.04720    0.30230    0.68430    1.000
    H16      H        0.04590    0.29810    0.59820    1.000
    C8       C        0.88770    0.21880    0.61410    1.000
    H17      H        0.88880    0.29150    0.57850    1.000
    H18      H        0.88190    0.26000    0.66090    1.000
    C9       C        0.97510    0.14490    0.62924    1.000
    H19      H        0.98090    0.08690    0.67310    1.000
    H20      H        0.97660    0.08790    0.58620    1.000
    H21      H        0.78500    0.20500    0.30400    1.000
    V10      V        0.33838    0.62474    0.41482    1.000
    V11      V        0.75755    0.94856    0.71479    1.000
    V12      V        0.30860    0.41490    0.71910    1.000
    P7       P        0.65769    0.66633    0.66525    1.000
    P8       P        0.29343    0.61775    0.57793    1.000
    O25      O        0.72597    0.77390    0.66725    1.000
    O26      O        0.66465    0.01120    0.71008    1.000
    O27      O        0.66690    0.59580    0.73934    1.000
    O28      O        0.29711    0.49090    0.62457    1.000
    O29      O        0.29686    0.57060    0.50043    1.000
    O30      O        0.66279    0.56910    0.60272    1.000
    O31      O        0.21258    0.69850    0.57786    1.000
    O32      O        0.29600    0.64810    0.30796    1.000
    C10      C        0.55150    0.74250    0.64303    1.000
    H22      H        0.54720    0.80230    0.68430    1.000
    H23      H        0.54590    0.79810    0.59820    1.000
    C11      C        0.38770    0.71880    0.61410    1.000
    H24      H        0.38880    0.79150    0.57850    1.000
    H25      H        0.38190    0.76000    0.66090    1.000
    C12      C        0.47510    0.64490    0.62924    1.000
    H26      H        0.48090    0.58690    0.67310    1.000
    H27      H        0.47660    0.58790    0.58620    1.000
    H28      H        0.28500    0.70500    0.30400    1.000
    V13      V        0.83838    0.87526    0.91482    1.000
    V14      V        0.25755    0.55144    0.21479    1.000
    V15      V        0.80860    0.08510    0.21910    1.000
    P9       P        0.15769    0.83367    0.16525    1.000
    P10      P        0.79343    0.88225    0.07793    1.000
    O33      O        0.22597    0.72610    0.16725    1.000
    O34      O        0.16465    0.48880    0.21008    1.000
    O35      O        0.16690    0.90420    0.23934    1.000
    O36      O        0.79711    0.00910    0.12457    1.000
    O37      O        0.79686    0.92940    0.00043    1.000
    O38      O        0.16279    0.93090    0.10272    1.000
    O39      O        0.71258    0.80150    0.07786    1.000
    O40      O        0.79600    0.85190    0.80796    1.000
    C13      C        0.05150    0.75750    0.14303    1.000
    H29      H        0.04720    0.69770    0.18430    1.000
    H30      H        0.04590    0.70190    0.09820    1.000
    C14      C        0.88770    0.78120    0.11410    1.000
    H31      H        0.88880    0.70850    0.07850    1.000
    H32      H        0.88190    0.74000    0.16090    1.000
    C15      C        0.97510    0.85510    0.12924    1.000
    H33      H        0.98090    0.91310    0.17310    1.000
    H34      H        0.97660    0.91210    0.08620    1.000
    H35      H        0.78500    0.79500    0.80400    1.000
    V16      V        0.33838    0.37526    0.91482    1.000
    V17      V        0.75755    0.05144    0.21479    1.000
    V18      V        0.30860    0.58510    0.21910    1.000
    P11      P        0.65769    0.33367    0.16525    1.000
    P12      P        0.29343    0.38225    0.07793    1.000
    O41      O        0.72597    0.22610    0.16725    1.000
    O42      O        0.66465    0.98880    0.21008    1.000
    O43      O        0.66690    0.40420    0.23934    1.000
    O44      O        0.29711    0.50910    0.12457    1.000
    O45      O        0.29686    0.42940    0.00043    1.000
    O46      O        0.66279    0.43090    0.10272    1.000
    O47      O        0.21258    0.30150    0.07786    1.000
    O48      O        0.29600    0.35190    0.80796    1.000
    C16      C        0.55150    0.25750    0.14303    1.000
    H36      H        0.54720    0.19770    0.18430    1.000
    H37      H        0.54590    0.20190    0.09820    1.000
    C17      C        0.38770    0.28120    0.11410    1.000
    H38      H        0.38880    0.20850    0.07850    1.000
    H39      H        0.38190    0.24000    0.16090    1.000
    C18      C        0.47510    0.35510    0.12924    1.000
    H40      H        0.48090    0.41310    0.17310    1.000
    H41      H        0.47660    0.41210    0.08620    1.000
    H42      H        0.28500    0.29500    0.80400    1.000
    V19      V        0.16162    0.87526    0.58518    1.000
    V20      V        0.74245    0.55144    0.28521    1.000
    V21      V        0.19140    0.08510    0.28090    1.000
    P13      P        0.84231    0.83367    0.33475    1.000
    P14      P        0.20657    0.88225    0.42207    1.000
    O49      O        0.77403    0.72610    0.33275    1.000
    O50      O        0.83535    0.48880    0.28992    1.000
    O51      O        0.83310    0.90420    0.26066    1.000
    O52      O        0.20289    0.00910    0.37543    1.000
    O53      O        0.20314    0.92940    0.49957    1.000
    O54      O        0.83721    0.93090    0.39728    1.000
    O55      O        0.28742    0.80150    0.42214    1.000
    O56      O        0.20400    0.85190    0.69204    1.000
    C19      C        0.94850    0.75750    0.35697    1.000
    H43      H        0.95280    0.69770    0.31570    1.000
    H44      H        0.95410    0.70190    0.40180    1.000
    C20      C        0.11230    0.78120    0.38590    1.000
    H45      H        0.11120    0.70850    0.42150    1.000
    H46      H        0.11810    0.74000    0.33910    1.000
    C21      C        0.02490    0.85510    0.37076    1.000
    H47      H        0.01910    0.91310    0.32690    1.000
    H48      H        0.02340    0.91210    0.41380    1.000
    H49      H        0.21500    0.79500    0.69600    1.000
    V22      V        0.66162    0.37526    0.58518    1.000
    V23      V        0.24245    0.05144    0.28521    1.000
    V24      V        0.69140    0.58510    0.28090    1.000
    P15      P        0.34231    0.33367    0.33475    1.000
    P16      P        0.70657    0.38225    0.42207    1.000
    O57      O        0.27403    0.22610    0.33275    1.000
    O58      O        0.33535    0.98880    0.28992    1.000
    O59      O        0.33310    0.40420    0.26066    1.000
    O60      O        0.70289    0.50910    0.37543    1.000
    O61      O        0.70314    0.42940    0.49957    1.000
    O62      O        0.33721    0.43090    0.39728    1.000
    O63      O        0.78742    0.30150    0.42214    1.000
    O64      O        0.70400    0.35190    0.69204    1.000
    C22      C        0.44850    0.25750    0.35697    1.000
    H50      H        0.45280    0.19770    0.31570    1.000
    H51      H        0.45410    0.20190    0.40180    1.000
    C23      C        0.61230    0.28120    0.38590    1.000
    H52      H        0.61120    0.20850    0.42150    1.000
    H53      H        0.61810    0.24000    0.33910    1.000
    C24      C        0.52490    0.35510    0.37076    1.000
    H54      H        0.51910    0.41310    0.32690    1.000
    H55      H        0.52340    0.41210    0.41380    1.000
    H56      H        0.71500    0.29500    0.69600    1.000
