# CIF file generated by openbabel 3.1.0, see https://openbabel.org
data_I
_chemical_name_common 'AGIMOU_clean'
_cell_length_a 9.3348
_cell_length_b 9.3606
_cell_length_c 13.0009
_cell_angle_alpha 90
_cell_angle_beta 90
_cell_angle_gamma 91.282
_space_group_name_H-M_alt 'P 1'
_space_group_name_Hall 'P 1'
loop_
    _symmetry_equiv_pos_as_xyz
    x,y,z
loop_
    _atom_site_label
    _atom_site_type_symbol
    _atom_site_fract_x
    _atom_site_fract_y
    _atom_site_fract_z
    _atom_site_occupancy
    Mn1      Mn       0.78361    0.51438    0.75730    1.000
    Mn2      Mn       0.71639    0.98562    0.25730    1.000
    Mn3      Mn       0.50000    0.00000    0.50000    1.000
    Mn4      Mn       0.21639    0.48562    0.24270    1.000
    Mn5      Mn       0.28361    0.01438    0.74270    1.000
    Mn6      Mn       0.00000    0.50000    0.00000    1.000
    H1       H        0.48580    0.41920    0.87300    1.000
    H2       H        0.01940    0.15210    0.59150    1.000
    H3       H        0.36720    0.31050    0.86660    1.000
    H4       H        0.01420    0.08080    0.37300    1.000
    H5       H        0.51940    0.65210    0.90850    1.000
    H6       H        0.13280    0.18950    0.36660    1.000
    H7       H        0.48060    0.34790    0.09150    1.000
    H8       H        0.09640    0.74130    0.40220    1.000
    H9       H        0.59640    0.24130    0.09780    1.000
    H10      H        0.86720    0.81050    0.63340    1.000
    H11      H        0.90360    0.25870    0.59780    1.000
    H12      H        0.98060    0.84790    0.40850    1.000
    H13      H        0.51420    0.58080    0.12700    1.000
    H14      H        0.40360    0.75870    0.90220    1.000
    H15      H        0.63280    0.68950    0.13340    1.000
    H16      H        0.98580    0.91920    0.62700    1.000
    C1       C        0.00300    0.79470    0.74420    1.000
    C2       C        0.01470    0.24830    0.72320    1.000
    C3       C        0.98530    0.75170    0.27680    1.000
    C4       C        0.48530    0.25170    0.22320    1.000
    C5       C        0.51470    0.74830    0.77680    1.000
    C6       C        0.99700    0.20530    0.25580    1.000
    C7       C        0.49700    0.70530    0.24420    1.000
    C8       C        0.50300    0.29470    0.75580    1.000
    N1       N        0.44500    0.34790    0.84230    1.000
    N2       N        0.62220    0.34710    0.71082    1.000
    N3       N        0.12970    0.25100    0.86567    1.000
    N4       N        0.47170    0.15690    0.37169    1.000
    N5       N        0.54770    0.15490    0.28280    1.000
    N6       N        0.96150    0.32910    0.12065    1.000
    N7       N        0.87780    0.15290    0.21082    1.000
    N8       N        0.37780    0.65290    0.28918    1.000
    N9       N        0.05130    0.31550    0.20207    1.000
    N10      N        0.94870    0.68450    0.79793    1.000
    N11      N        0.97430    0.21570    0.62560    1.000
    N12      N        0.04770    0.65490    0.21720    1.000
    N13      N        0.87570    0.81280    0.22752    1.000
    N14      N        0.02830    0.34310    0.87169    1.000
    N15      N        0.87030    0.74900    0.13433    1.000
    N16      N        0.94500    0.84790    0.65770    1.000
    N17      N        0.52830    0.84310    0.62831    1.000
    N18      N        0.03850    0.67090    0.87935    1.000
    N19      N        0.64130    0.26610    0.62564    1.000
    N20      N        0.55130    0.81550    0.29793    1.000
    N21      N        0.46150    0.82910    0.37935    1.000
    N22      N        0.47430    0.71570    0.87440    1.000
    N23      N        0.12430    0.18720    0.77248    1.000
    N24      N        0.12220    0.84710    0.78918    1.000
    N25      N        0.62970    0.75100    0.63433    1.000
    N26      N        0.14130    0.76610    0.87436    1.000
    N27      N        0.02570    0.78430    0.37440    1.000
    N28      N        0.35870    0.73390    0.37436    1.000
    N29      N        0.55500    0.65210    0.15770    1.000
    N30      N        0.53850    0.17090    0.62065    1.000
    N31      N        0.62430    0.68720    0.72752    1.000
    N32      N        0.95230    0.34510    0.78280    1.000
    N33      N        0.05500    0.15210    0.34230    1.000
    N34      N        0.37570    0.31280    0.27248    1.000
    N35      N        0.37030    0.24900    0.36567    1.000
    N36      N        0.45230    0.84510    0.71720    1.000
    N37      N        0.97170    0.65690    0.12831    1.000
    N38      N        0.52570    0.28430    0.12560    1.000
    N39      N        0.85870    0.23390    0.12564    1.000
    N40      N        0.44870    0.18450    0.70207    1.000
    Cl1      Cl       0.76598    0.00736    0.45163    1.000
    Cl2      Cl       0.26598    0.50736    0.04837    1.000
    Cl3      Cl       0.23402    0.99264    0.54837    1.000
    Cl4      Cl       0.73402    0.49264    0.95163    1.000
