# CIF file generated by openbabel 3.1.0, see https://openbabel.org
data_I
_chemical_name_common 'image0'
_cell_length_a 20.27
_cell_length_b 16.336
_cell_length_c 24.664
_cell_angle_alpha 90
_cell_angle_beta 101.671
_cell_angle_gamma 90
_space_group_name_H-M_alt 'P 1'
_space_group_name_Hall 'P 1'
loop_
    _symmetry_equiv_pos_as_xyz
    x,y,z
loop_
    _atom_site_label
    _atom_site_type_symbol
    _atom_site_fract_x
    _atom_site_fract_y
    _atom_site_fract_z
    _atom_site_occupancy
    Co1      Co       0.13335    0.75376    0.10000    1.000
    Co2      Co       0.30033    0.76655    0.10662    1.000
    Co3      Co       0.18867    0.86937    0.01175    1.000
    O1       O        0.20787    0.76615    0.05416    1.000
    H1       H        0.20570    0.72620    0.03180    1.000
    O2       O        0.33507    0.34100    0.34093    1.000
    O3       O        0.22557    0.35170    0.34107    1.000
    O4       O        0.28790    0.67320    0.15780    1.000
    O5       O        0.17698    0.65830    0.14792    1.000
    C1       C        0.27780    0.36960    0.32400    1.000
    C2       C        0.23610    0.63740    0.16579    1.000
    C3       C        0.26930    0.43340    0.27960    1.000
    C4       C        0.24860    0.56290    0.20270    1.000
    C5       C        0.30060    0.50100    0.29120    1.000
    H2       H        0.32890    0.50510    0.32590    1.000
    C6       C        0.29680    0.57320    0.25600    1.000
    H3       H        0.32180    0.62050    0.26580    1.000
    C7       C        0.21860    0.48530    0.18620    1.000
    C8       C        0.17700    0.47380    0.13390    1.000
    H4       H        0.17060    0.51620    0.10820    1.000
    C9       C        0.14630    0.40060    0.12100    1.000
    H5       H        0.11790    0.39360    0.08670    1.000
    C10      C        0.15640    0.33580    0.15840    1.000
    H6       H        0.13700    0.28520    0.14760    1.000
    C11      C        0.19370    0.34490    0.20970    1.000
    H7       H        0.19800    0.30230    0.23520    1.000
    C12      C        0.22580    0.41980    0.22380    1.000
    O6       O        0.57991    0.35610    0.05162    1.000
    O7       O        0.64462    0.46000    0.04230    1.000
    O8       O        0.34713    0.67929    0.06192    1.000
    O9       O        0.41413    0.72960    0.13456    1.000
    C13      C        0.59190    0.43090    0.05456    1.000
    C14      C        0.40410    0.67930    0.09694    1.000
    C15      C        0.54290    0.49150    0.07102    1.000
    C16      C        0.45380    0.61400    0.09054    1.000
    C17      C        0.55380    0.57320    0.05970    1.000
    H8       H        0.59150    0.58680    0.04540    1.000
    C18      C        0.51050    0.63520    0.06900    1.000
    H9       H        0.51880    0.68940    0.06110    1.000
    C19      C        0.44170    0.53500    0.10100    1.000
    C20      C        0.38410    0.51310    0.12580    1.000
    H10      H        0.35610    0.55450    0.13400    1.000
    C21      C        0.37050    0.43450    0.13720    1.000
    H11      H        0.33100    0.42130    0.14900    1.000
    C22      C        0.41630    0.37370    0.13090    1.000
    H12      H        0.40920    0.32110    0.14300    1.000
    C23      C        0.47250    0.38750    0.10760    1.000
    H13      H        0.49960    0.34490    0.09980    1.000
    C24      C        0.48560    0.46940    0.09650    1.000
    O10      O        0.07910    0.66840    0.04261    1.000
    O11      O        0.03827    0.70850    0.11292    1.000
    O12      O        0.84088    0.36130    0.07122    1.000
    O13      O        0.77341    0.41750    0.00003    1.000
    C25      C        0.03500    0.66460    0.07060    1.000
    C26      C        0.82680    0.41630    0.03651    1.000
    C27      C        0.97880    0.60340    0.05650    1.000
    C28      C        0.87730    0.48420    0.03881    1.000
    C29      C        0.99020    0.52660    0.08550    1.000
    H14      H        0.03050    0.51630    0.11010    1.000
    C30      C        0.93900    0.46810    0.07570    1.000
    H15      H        0.94550    0.41780    0.09370    1.000
    C31      C        0.86650    0.56080    0.01260    1.000
    C32      C        0.80660    0.58260    0.97730    1.000
    H16      H        0.77070    0.54600    0.97140    1.000
    C33      C        0.79970    0.65510    0.95190    1.000
    H17      H        0.76060    0.66670    0.92610    1.000
    C34      C        0.90970    0.69750    0.99900    1.000
    H18      H        0.94370    0.73660    0.00710    1.000
    C35      C        0.85270    0.71570    0.96420    1.000
    H19      H        0.84680    0.76710    0.94770    1.000
    C36      C        0.91930    0.62010    0.02360    1.000
    C37      C        0.31190    0.50350    0.28500    1.000
    H20      H        0.34690    0.51060    0.31550    1.000
    C38      C        0.29850    0.56220    0.24180    1.000
    H21      H        0.32990    0.60390    0.24250    1.000
    C39      C        0.20220    0.49460    0.19540    1.000
    C40      C        0.14860    0.48360    0.14930    1.000
    H22      H        0.13990    0.52420    0.12230    1.000
    C41      C        0.10830    0.41340    0.14340    1.000
    H23      H        0.06970    0.41100    0.11560    1.000
    C42      C        0.12590    0.34730    0.17880    1.000
    H24      H        0.10380    0.29740    0.17100    1.000
    C43      C        0.17630    0.35570    0.22560    1.000
    H25      H        0.18480    0.31260    0.25070    1.000
    C44      C        0.21520    0.42850    0.23630    1.000
    C45      C        0.56110    0.57330    0.07340    1.000
    H26      H        0.60340    0.58850    0.06780    1.000
    C46      C        0.51590    0.63370    0.08430    1.000
    H27      H        0.52940    0.68820    0.08720    1.000
    C47      C        0.43270    0.52710    0.09360    1.000
    C48      C        0.37090    0.50590    0.10490    1.000
    H28      H        0.34170    0.54660    0.11180    1.000
    C49      C        0.35260    0.42720    0.10600    1.000
    H29      H        0.31160    0.41340    0.11480    1.000
    C50      C        0.39640    0.36540    0.09380    1.000
    H30      H        0.38400    0.31060    0.09350    1.000
    C51      C        0.45570    0.38760    0.08280    1.000
    H31      H        0.48460    0.34560    0.07710    1.000
    C52      C        0.47890    0.46870    0.07890    1.000
    C53      C        0.99300    0.52290    0.05300    1.000
    H32      H        0.03720    0.50690    0.05370    1.000
    C54      C        0.94230    0.46260    0.04820    1.000
    H33      H        0.95410    0.40760    0.05160    1.000
    C55      C        0.85870    0.56830    0.03030    1.000
    C56      C        0.79260    0.59520    0.00890    1.000
    H34      H        0.75710    0.55810    0.00450    1.000
    C57      C        0.78010    0.67610    0.99420    1.000
    H35      H        0.73640    0.69210    0.97820    1.000
    C58      C        0.83090    0.73380    0.00290    1.000
    H36      H        0.82160    0.78780    0.99210    1.000
    C59      C        0.89300    0.71170    0.02650    1.000
    H37      H        0.92640    0.75140    0.03510    1.000
    C60      C        0.90940    0.62810    0.03890    1.000
    Co4      Co       0.63335    0.25376    0.10000    1.000
    Co5      Co       0.80033    0.26655    0.10662    1.000
    Co6      Co       0.68867    0.36937    0.01175    1.000
    O14      O        0.70787    0.26615    0.05416    1.000
    H38      H        0.70570    0.22620    0.03180    1.000
    O15      O        0.83507    0.84100    0.34093    1.000
    O16      O        0.72557    0.85170    0.34107    1.000
    O17      O        0.78790    0.17320    0.15780    1.000
    O18      O        0.67698    0.15830    0.14792    1.000
    C61      C        0.77780    0.86960    0.32400    1.000
    C62      C        0.73610    0.13740    0.16579    1.000
    C63      C        0.76930    0.93340    0.27960    1.000
    C64      C        0.74860    0.06290    0.20270    1.000
    C65      C        0.80060    0.00100    0.29120    1.000
    H39      H        0.82890    0.00510    0.32590    1.000
    C66      C        0.79680    0.07320    0.25600    1.000
    H40      H        0.82180    0.12050    0.26580    1.000
    C67      C        0.71860    0.98530    0.18620    1.000
    C68      C        0.67700    0.97380    0.13390    1.000
    H41      H        0.67060    0.01620    0.10820    1.000
    C69      C        0.64630    0.90060    0.12100    1.000
    H42      H        0.61790    0.89360    0.08670    1.000
    C70      C        0.65640    0.83580    0.15840    1.000
    H43      H        0.63700    0.78520    0.14760    1.000
    C71      C        0.69370    0.84490    0.20970    1.000
    H44      H        0.69800    0.80230    0.23520    1.000
    C72      C        0.72580    0.91980    0.22380    1.000
    O19      O        0.07991    0.85610    0.05162    1.000
    O20      O        0.14462    0.96000    0.04230    1.000
    O21      O        0.84713    0.17929    0.06192    1.000
    O22      O        0.91413    0.22960    0.13456    1.000
    C73      C        0.09190    0.93090    0.05456    1.000
    C74      C        0.90410    0.17930    0.09694    1.000
    C75      C        0.04290    0.99150    0.07102    1.000
    C76      C        0.95380    0.11400    0.09054    1.000
    C77      C        0.05380    0.07320    0.05970    1.000
    H45      H        0.09150    0.08680    0.04540    1.000
    C78      C        0.01050    0.13520    0.06900    1.000
    H46      H        0.01880    0.18940    0.06110    1.000
    C79      C        0.94170    0.03500    0.10100    1.000
    C80      C        0.88410    0.01310    0.12580    1.000
    H47      H        0.85610    0.05450    0.13400    1.000
    C81      C        0.87050    0.93450    0.13720    1.000
    H48      H        0.83100    0.92130    0.14900    1.000
    C82      C        0.91630    0.87370    0.13090    1.000
    H49      H        0.90920    0.82110    0.14300    1.000
    C83      C        0.97250    0.88750    0.10760    1.000
    H50      H        0.99960    0.84490    0.09980    1.000
    C84      C        0.98560    0.96940    0.09650    1.000
    O23      O        0.57910    0.16840    0.04261    1.000
    O24      O        0.53827    0.20850    0.11292    1.000
    O25      O        0.34088    0.86130    0.07122    1.000
    O26      O        0.27341    0.91750    0.00003    1.000
    C85      C        0.53500    0.16460    0.07060    1.000
    C86      C        0.32680    0.91630    0.03651    1.000
    C87      C        0.47880    0.10340    0.05650    1.000
    C88      C        0.37730    0.98420    0.03881    1.000
    C89      C        0.49020    0.02660    0.08550    1.000
    H51      H        0.53050    0.01630    0.11010    1.000
    C90      C        0.43900    0.96810    0.07570    1.000
    H52      H        0.44550    0.91780    0.09370    1.000
    C91      C        0.36650    0.06080    0.01260    1.000
    C92      C        0.30660    0.08260    0.97730    1.000
    H53      H        0.27070    0.04600    0.97140    1.000
    C93      C        0.29970    0.15510    0.95190    1.000
    H54      H        0.26060    0.16670    0.92610    1.000
    C94      C        0.40970    0.19750    0.99900    1.000
    H55      H        0.44370    0.23660    0.00710    1.000
    C95      C        0.35270    0.21570    0.96420    1.000
    H56      H        0.34680    0.26710    0.94770    1.000
    C96      C        0.41930    0.12010    0.02360    1.000
    C97      C        0.81190    0.00350    0.28500    1.000
    H57      H        0.84690    0.01060    0.31550    1.000
    C98      C        0.79850    0.06220    0.24180    1.000
    H58      H        0.82990    0.10390    0.24250    1.000
    C99      C        0.70220    0.99460    0.19540    1.000
    C100     C        0.64860    0.98360    0.14930    1.000
    H59      H        0.63990    0.02420    0.12230    1.000
    C101     C        0.60830    0.91340    0.14340    1.000
    H60      H        0.56970    0.91100    0.11560    1.000
    C102     C        0.62590    0.84730    0.17880    1.000
    H61      H        0.60380    0.79740    0.17100    1.000
    C103     C        0.67630    0.85570    0.22560    1.000
    H62      H        0.68480    0.81260    0.25070    1.000
    C104     C        0.71520    0.92850    0.23630    1.000
    C105     C        0.06110    0.07330    0.07340    1.000
    H63      H        0.10340    0.08850    0.06780    1.000
    C106     C        0.01590    0.13370    0.08430    1.000
    H64      H        0.02940    0.18820    0.08720    1.000
    C107     C        0.93270    0.02710    0.09360    1.000
    C108     C        0.87090    0.00590    0.10490    1.000
    H65      H        0.84170    0.04660    0.11180    1.000
    C109     C        0.85260    0.92720    0.10600    1.000
    H66      H        0.81160    0.91340    0.11480    1.000
    C110     C        0.89640    0.86540    0.09380    1.000
    H67      H        0.88400    0.81060    0.09350    1.000
    C111     C        0.95570    0.88760    0.08280    1.000
    H68      H        0.98460    0.84560    0.07710    1.000
    C112     C        0.97890    0.96870    0.07890    1.000
    C113     C        0.49300    0.02290    0.05300    1.000
    H69      H        0.53720    0.00690    0.05370    1.000
    C114     C        0.44230    0.96260    0.04820    1.000
    H70      H        0.45410    0.90760    0.05160    1.000
    C115     C        0.35870    0.06830    0.03030    1.000
    C116     C        0.29260    0.09520    0.00890    1.000
    H71      H        0.25710    0.05810    0.00450    1.000
    C117     C        0.28010    0.17610    0.99420    1.000
    H72      H        0.23640    0.19210    0.97820    1.000
    C118     C        0.33090    0.23380    0.00290    1.000
    H73      H        0.32160    0.28780    0.99210    1.000
    C119     C        0.39300    0.21170    0.02650    1.000
    H74      H        0.42640    0.25140    0.03510    1.000
    C120     C        0.40940    0.12810    0.03890    1.000
    Co7      Co       0.86665    0.75376    0.40000    1.000
    Co8      Co       0.69967    0.76655    0.39338    1.000
    Co9      Co       0.81133    0.86937    0.48825    1.000
    O27      O        0.79213    0.76615    0.44584    1.000
    H75      H        0.79430    0.72620    0.46820    1.000
    O28      O        0.66493    0.34100    0.15907    1.000
    O29      O        0.77443    0.35170    0.15893    1.000
    O30      O        0.71210    0.67320    0.34220    1.000
    O31      O        0.82302    0.65830    0.35208    1.000
    C121     C        0.72220    0.36960    0.17600    1.000
    C122     C        0.76390    0.63740    0.33421    1.000
    C123     C        0.73070    0.43340    0.22040    1.000
    C124     C        0.75140    0.56290    0.29730    1.000
    C125     C        0.69940    0.50100    0.20880    1.000
    H76      H        0.67110    0.50510    0.17410    1.000
    C126     C        0.70320    0.57320    0.24400    1.000
    H77      H        0.67820    0.62050    0.23420    1.000
    C127     C        0.78140    0.48530    0.31380    1.000
    C128     C        0.82300    0.47380    0.36610    1.000
    H78      H        0.82940    0.51620    0.39180    1.000
    C129     C        0.85370    0.40060    0.37900    1.000
    H79      H        0.88210    0.39360    0.41330    1.000
    C130     C        0.84360    0.33580    0.34160    1.000
    H80      H        0.86300    0.28520    0.35240    1.000
    C131     C        0.80630    0.34490    0.29030    1.000
    H81      H        0.80200    0.30230    0.26480    1.000
    C132     C        0.77420    0.41980    0.27620    1.000
    O32      O        0.42009    0.35610    0.44838    1.000
    O33      O        0.35538    0.46000    0.45770    1.000
    O34      O        0.65287    0.67929    0.43808    1.000
    O35      O        0.58587    0.72960    0.36544    1.000
    C133     C        0.40810    0.43090    0.44544    1.000
    C134     C        0.59590    0.67930    0.40306    1.000
    C135     C        0.45710    0.49150    0.42898    1.000
    C136     C        0.54620    0.61400    0.40946    1.000
    C137     C        0.44620    0.57320    0.44030    1.000
    H82      H        0.40850    0.58680    0.45460    1.000
    C138     C        0.48950    0.63520    0.43100    1.000
    H83      H        0.48120    0.68940    0.43890    1.000
    C139     C        0.55830    0.53500    0.39900    1.000
    C140     C        0.61590    0.51310    0.37420    1.000
    H84      H        0.64390    0.55450    0.36600    1.000
    C141     C        0.62950    0.43450    0.36280    1.000
    H85      H        0.66900    0.42130    0.35100    1.000
    C142     C        0.58370    0.37370    0.36910    1.000
    H86      H        0.59080    0.32110    0.35700    1.000
    C143     C        0.52750    0.38750    0.39240    1.000
    H87      H        0.50040    0.34490    0.40020    1.000
    C144     C        0.51440    0.46940    0.40350    1.000
    O36      O        0.92090    0.66840    0.45739    1.000
    O37      O        0.96173    0.70850    0.38708    1.000
    O38      O        0.15912    0.36130    0.42878    1.000
    O39      O        0.22659    0.41750    0.49997    1.000
    C145     C        0.96500    0.66460    0.42940    1.000
    C146     C        0.17320    0.41630    0.46349    1.000
    C147     C        0.02120    0.60340    0.44350    1.000
    C148     C        0.12270    0.48420    0.46119    1.000
    C149     C        0.00980    0.52660    0.41450    1.000
    H88      H        0.96950    0.51630    0.38990    1.000
    C150     C        0.06100    0.46810    0.42430    1.000
    H89      H        0.05450    0.41780    0.40630    1.000
    C151     C        0.13350    0.56080    0.48740    1.000
    C152     C        0.19340    0.58260    0.52270    1.000
    H90      H        0.22930    0.54600    0.52860    1.000
    C153     C        0.20030    0.65510    0.54810    1.000
    H91      H        0.23940    0.66670    0.57390    1.000
    C154     C        0.09030    0.69750    0.50100    1.000
    H92      H        0.05630    0.73660    0.49290    1.000
    C155     C        0.14730    0.71570    0.53580    1.000
    H93      H        0.15320    0.76710    0.55230    1.000
    C156     C        0.08070    0.62010    0.47640    1.000
    C157     C        0.68810    0.50350    0.21500    1.000
    H94      H        0.65310    0.51060    0.18450    1.000
    C158     C        0.70150    0.56220    0.25820    1.000
    H95      H        0.67010    0.60390    0.25750    1.000
    C159     C        0.79780    0.49460    0.30460    1.000
    C160     C        0.85140    0.48360    0.35070    1.000
    H96      H        0.86010    0.52420    0.37770    1.000
    C161     C        0.89170    0.41340    0.35660    1.000
    H97      H        0.93030    0.41100    0.38440    1.000
    C162     C        0.87410    0.34730    0.32120    1.000
    H98      H        0.89620    0.29740    0.32900    1.000
    C163     C        0.82370    0.35570    0.27440    1.000
    H99      H        0.81520    0.31260    0.24930    1.000
    C164     C        0.78480    0.42850    0.26370    1.000
    C165     C        0.43890    0.57330    0.42660    1.000
    H100     H        0.39660    0.58850    0.43220    1.000
    C166     C        0.48410    0.63370    0.41570    1.000
    H101     H        0.47060    0.68820    0.41280    1.000
    C167     C        0.56730    0.52710    0.40640    1.000
    C168     C        0.62910    0.50590    0.39510    1.000
    H102     H        0.65830    0.54660    0.38820    1.000
    C169     C        0.64740    0.42720    0.39400    1.000
    H103     H        0.68840    0.41340    0.38520    1.000
    C170     C        0.60360    0.36540    0.40620    1.000
    H104     H        0.61600    0.31060    0.40650    1.000
    C171     C        0.54430    0.38760    0.41720    1.000
    H105     H        0.51540    0.34560    0.42290    1.000
    C172     C        0.52110    0.46870    0.42110    1.000
    C173     C        0.00700    0.52290    0.44700    1.000
    H106     H        0.96280    0.50690    0.44630    1.000
    C174     C        0.05770    0.46260    0.45180    1.000
    H107     H        0.04590    0.40760    0.44840    1.000
    C175     C        0.14130    0.56830    0.46970    1.000
    C176     C        0.20740    0.59520    0.49110    1.000
    H108     H        0.24290    0.55810    0.49550    1.000
    C177     C        0.21990    0.67610    0.50580    1.000
    H109     H        0.26360    0.69210    0.52180    1.000
    C178     C        0.16910    0.73380    0.49710    1.000
    H110     H        0.17840    0.78780    0.50790    1.000
    C179     C        0.10700    0.71170    0.47350    1.000
    H111     H        0.07360    0.75140    0.46490    1.000
    C180     C        0.09060    0.62810    0.46110    1.000
    Co10     Co       0.36665    0.25376    0.40000    1.000
    Co11     Co       0.19967    0.26655    0.39338    1.000
    Co12     Co       0.31133    0.36937    0.48825    1.000
    O40      O        0.29213    0.26615    0.44584    1.000
    H112     H        0.29430    0.22620    0.46820    1.000
    O41      O        0.16493    0.84100    0.15907    1.000
    O42      O        0.27443    0.85170    0.15893    1.000
    O43      O        0.21210    0.17320    0.34220    1.000
    O44      O        0.32302    0.15830    0.35208    1.000
    C181     C        0.22220    0.86960    0.17600    1.000
    C182     C        0.26390    0.13740    0.33421    1.000
    C183     C        0.23070    0.93340    0.22040    1.000
    C184     C        0.25140    0.06290    0.29730    1.000
    C185     C        0.19940    0.00100    0.20880    1.000
    H113     H        0.17110    0.00510    0.17410    1.000
    C186     C        0.20320    0.07320    0.24400    1.000
    H114     H        0.17820    0.12050    0.23420    1.000
    C187     C        0.28140    0.98530    0.31380    1.000
    C188     C        0.32300    0.97380    0.36610    1.000
    H115     H        0.32940    0.01620    0.39180    1.000
    C189     C        0.35370    0.90060    0.37900    1.000
    H116     H        0.38210    0.89360    0.41330    1.000
    C190     C        0.34360    0.83580    0.34160    1.000
    H117     H        0.36300    0.78520    0.35240    1.000
    C191     C        0.30630    0.84490    0.29030    1.000
    H118     H        0.30200    0.80230    0.26480    1.000
    C192     C        0.27420    0.91980    0.27620    1.000
    O45      O        0.92009    0.85610    0.44838    1.000
    O46      O        0.85538    0.96000    0.45770    1.000
    O47      O        0.15287    0.17929    0.43808    1.000
    O48      O        0.08587    0.22960    0.36544    1.000
    C193     C        0.90810    0.93090    0.44544    1.000
    C194     C        0.09590    0.17930    0.40306    1.000
    C195     C        0.95710    0.99150    0.42898    1.000
    C196     C        0.04620    0.11400    0.40946    1.000
    C197     C        0.94620    0.07320    0.44030    1.000
    H119     H        0.90850    0.08680    0.45460    1.000
    C198     C        0.98950    0.13520    0.43100    1.000
    H120     H        0.98120    0.18940    0.43890    1.000
    C199     C        0.05830    0.03500    0.39900    1.000
    C200     C        0.11590    0.01310    0.37420    1.000
    H121     H        0.14390    0.05450    0.36600    1.000
    C201     C        0.12950    0.93450    0.36280    1.000
    H122     H        0.16900    0.92130    0.35100    1.000
    C202     C        0.08370    0.87370    0.36910    1.000
    H123     H        0.09080    0.82110    0.35700    1.000
    C203     C        0.02750    0.88750    0.39240    1.000
    H124     H        0.00040    0.84490    0.40020    1.000
    C204     C        0.01440    0.96940    0.40350    1.000
    O49      O        0.42090    0.16840    0.45739    1.000
    O50      O        0.46173    0.20850    0.38708    1.000
    O51      O        0.65912    0.86130    0.42878    1.000
    O52      O        0.72659    0.91750    0.49997    1.000
    C205     C        0.46500    0.16460    0.42940    1.000
    C206     C        0.67320    0.91630    0.46349    1.000
    C207     C        0.52120    0.10340    0.44350    1.000
    C208     C        0.62270    0.98420    0.46119    1.000
    C209     C        0.50980    0.02660    0.41450    1.000
    H125     H        0.46950    0.01630    0.38990    1.000
    C210     C        0.56100    0.96810    0.42430    1.000
    H126     H        0.55450    0.91780    0.40630    1.000
    C211     C        0.63350    0.06080    0.48740    1.000
    C212     C        0.69340    0.08260    0.52270    1.000
    H127     H        0.72930    0.04600    0.52860    1.000
    C213     C        0.70030    0.15510    0.54810    1.000
    H128     H        0.73940    0.16670    0.57390    1.000
    C214     C        0.59030    0.19750    0.50100    1.000
    H129     H        0.55630    0.23660    0.49290    1.000
    C215     C        0.64730    0.21570    0.53580    1.000
    H130     H        0.65320    0.26710    0.55230    1.000
    C216     C        0.58070    0.12010    0.47640    1.000
    C217     C        0.18810    0.00350    0.21500    1.000
    H131     H        0.15310    0.01060    0.18450    1.000
    C218     C        0.20150    0.06220    0.25820    1.000
    H132     H        0.17010    0.10390    0.25750    1.000
    C219     C        0.29780    0.99460    0.30460    1.000
    C220     C        0.35140    0.98360    0.35070    1.000
    H133     H        0.36010    0.02420    0.37770    1.000
    C221     C        0.39170    0.91340    0.35660    1.000
    H134     H        0.43030    0.91100    0.38440    1.000
    C222     C        0.37410    0.84730    0.32120    1.000
    H135     H        0.39620    0.79740    0.32900    1.000
    C223     C        0.32370    0.85570    0.27440    1.000
    H136     H        0.31520    0.81260    0.24930    1.000
    C224     C        0.28480    0.92850    0.26370    1.000
    C225     C        0.93890    0.07330    0.42660    1.000
    H137     H        0.89660    0.08850    0.43220    1.000
    C226     C        0.98410    0.13370    0.41570    1.000
    H138     H        0.97060    0.18820    0.41280    1.000
    C227     C        0.06730    0.02710    0.40640    1.000
    C228     C        0.12910    0.00590    0.39510    1.000
    H139     H        0.15830    0.04660    0.38820    1.000
    C229     C        0.14740    0.92720    0.39400    1.000
    H140     H        0.18840    0.91340    0.38520    1.000
    C230     C        0.10360    0.86540    0.40620    1.000
    H141     H        0.11600    0.81060    0.40650    1.000
    C231     C        0.04430    0.88760    0.41720    1.000
    H142     H        0.01540    0.84560    0.42290    1.000
    C232     C        0.02110    0.96870    0.42110    1.000
    C233     C        0.50700    0.02290    0.44700    1.000
    H143     H        0.46280    0.00690    0.44630    1.000
    C234     C        0.55770    0.96260    0.45180    1.000
    H144     H        0.54590    0.90760    0.44840    1.000
    C235     C        0.64130    0.06830    0.46970    1.000
    C236     C        0.70740    0.09520    0.49110    1.000
    H145     H        0.74290    0.05810    0.49550    1.000
    C237     C        0.71990    0.17610    0.50580    1.000
    H146     H        0.76360    0.19210    0.52180    1.000
    C238     C        0.66910    0.23380    0.49710    1.000
    H147     H        0.67840    0.28780    0.50790    1.000
    C239     C        0.60700    0.21170    0.47350    1.000
    H148     H        0.57360    0.25140    0.46490    1.000
    C240     C        0.59060    0.12810    0.46110    1.000
    Co13     Co       0.86665    0.24624    0.90000    1.000
    Co14     Co       0.69967    0.23345    0.89338    1.000
    Co15     Co       0.81133    0.13063    0.98825    1.000
    O53      O        0.79213    0.23385    0.94584    1.000
    H149     H        0.79430    0.27380    0.96820    1.000
    O54      O        0.66493    0.65900    0.65907    1.000
    O55      O        0.77443    0.64830    0.65893    1.000
    O56      O        0.71210    0.32680    0.84220    1.000
    O57      O        0.82302    0.34170    0.85208    1.000
    C241     C        0.72220    0.63040    0.67600    1.000
    C242     C        0.76390    0.36260    0.83421    1.000
    C243     C        0.73070    0.56660    0.72040    1.000
    C244     C        0.75140    0.43710    0.79730    1.000
    C245     C        0.69940    0.49900    0.70880    1.000
    H150     H        0.67110    0.49490    0.67410    1.000
    C246     C        0.70320    0.42680    0.74400    1.000
    H151     H        0.67820    0.37950    0.73420    1.000
    C247     C        0.78140    0.51470    0.81380    1.000
    C248     C        0.82300    0.52620    0.86610    1.000
    H152     H        0.82940    0.48380    0.89180    1.000
    C249     C        0.85370    0.59940    0.87900    1.000
    H153     H        0.88210    0.60640    0.91330    1.000
    C250     C        0.84360    0.66420    0.84160    1.000
    H154     H        0.86300    0.71480    0.85240    1.000
    C251     C        0.80630    0.65510    0.79030    1.000
    H155     H        0.80200    0.69770    0.76480    1.000
    C252     C        0.77420    0.58020    0.77620    1.000
    O58      O        0.42009    0.64390    0.94838    1.000
    O59      O        0.35538    0.54000    0.95770    1.000
    O60      O        0.65287    0.32071    0.93808    1.000
    O61      O        0.58587    0.27040    0.86544    1.000
    C253     C        0.40810    0.56910    0.94544    1.000
    C254     C        0.59590    0.32070    0.90306    1.000
    C255     C        0.45710    0.50850    0.92898    1.000
    C256     C        0.54620    0.38600    0.90946    1.000
    C257     C        0.44620    0.42680    0.94030    1.000
    H156     H        0.40850    0.41320    0.95460    1.000
    C258     C        0.48950    0.36480    0.93100    1.000
    H157     H        0.48120    0.31060    0.93890    1.000
    C259     C        0.55830    0.46500    0.89900    1.000
    C260     C        0.61590    0.48690    0.87420    1.000
    H158     H        0.64390    0.44550    0.86600    1.000
    C261     C        0.62950    0.56550    0.86280    1.000
    H159     H        0.66900    0.57870    0.85100    1.000
    C262     C        0.58370    0.62630    0.86910    1.000
    H160     H        0.59080    0.67890    0.85700    1.000
    C263     C        0.52750    0.61250    0.89240    1.000
    H161     H        0.50040    0.65510    0.90020    1.000
    C264     C        0.51440    0.53060    0.90350    1.000
    O62      O        0.92090    0.33160    0.95739    1.000
    O63      O        0.96173    0.29150    0.88708    1.000
    O64      O        0.15912    0.63870    0.92878    1.000
    O65      O        0.22659    0.58250    0.99997    1.000
    C265     C        0.96500    0.33540    0.92940    1.000
    C266     C        0.17320    0.58370    0.96349    1.000
    C267     C        0.02120    0.39660    0.94350    1.000
    C268     C        0.12270    0.51580    0.96119    1.000
    C269     C        0.00980    0.47340    0.91450    1.000
    H162     H        0.96950    0.48370    0.88990    1.000
    C270     C        0.06100    0.53190    0.92430    1.000
    H163     H        0.05450    0.58220    0.90630    1.000
    C271     C        0.13350    0.43920    0.98740    1.000
    C272     C        0.19340    0.41740    0.02270    1.000
    H164     H        0.22930    0.45400    0.02860    1.000
    C273     C        0.20030    0.34490    0.04810    1.000
    H165     H        0.23940    0.33330    0.07390    1.000
    C274     C        0.09030    0.30250    0.00100    1.000
    H166     H        0.05630    0.26340    0.99290    1.000
    C275     C        0.14730    0.28430    0.03580    1.000
    H167     H        0.15320    0.23290    0.05230    1.000
    C276     C        0.08070    0.37990    0.97640    1.000
    C277     C        0.68810    0.49650    0.71500    1.000
    H168     H        0.65310    0.48940    0.68450    1.000
    C278     C        0.70150    0.43780    0.75820    1.000
    H169     H        0.67010    0.39610    0.75750    1.000
    C279     C        0.79780    0.50540    0.80460    1.000
    C280     C        0.85140    0.51640    0.85070    1.000
    H170     H        0.86010    0.47580    0.87770    1.000
    C281     C        0.89170    0.58660    0.85660    1.000
    H171     H        0.93030    0.58900    0.88440    1.000
    C282     C        0.87410    0.65270    0.82120    1.000
    H172     H        0.89620    0.70260    0.82900    1.000
    C283     C        0.82370    0.64430    0.77440    1.000
    H173     H        0.81520    0.68740    0.74930    1.000
    C284     C        0.78480    0.57150    0.76370    1.000
    C285     C        0.43890    0.42670    0.92660    1.000
    H174     H        0.39660    0.41150    0.93220    1.000
    C286     C        0.48410    0.36630    0.91570    1.000
    H175     H        0.47060    0.31180    0.91280    1.000
    C287     C        0.56730    0.47290    0.90640    1.000
    C288     C        0.62910    0.49410    0.89510    1.000
    H176     H        0.65830    0.45340    0.88820    1.000
    C289     C        0.64740    0.57280    0.89400    1.000
    H177     H        0.68840    0.58660    0.88520    1.000
    C290     C        0.60360    0.63460    0.90620    1.000
    H178     H        0.61600    0.68940    0.90650    1.000
    C291     C        0.54430    0.61240    0.91720    1.000
    H179     H        0.51540    0.65440    0.92290    1.000
    C292     C        0.52110    0.53130    0.92110    1.000
    C293     C        0.00700    0.47710    0.94700    1.000
    H180     H        0.96280    0.49310    0.94630    1.000
    C294     C        0.05770    0.53740    0.95180    1.000
    H181     H        0.04590    0.59240    0.94840    1.000
    C295     C        0.14130    0.43170    0.96970    1.000
    C296     C        0.20740    0.40480    0.99110    1.000
    H182     H        0.24290    0.44190    0.99550    1.000
    C297     C        0.21990    0.32390    0.00580    1.000
    H183     H        0.26360    0.30790    0.02180    1.000
    C298     C        0.16910    0.26620    0.99710    1.000
    H184     H        0.17840    0.21220    0.00790    1.000
    C299     C        0.10700    0.28830    0.97350    1.000
    H185     H        0.07360    0.24860    0.96490    1.000
    C300     C        0.09060    0.37190    0.96110    1.000
    Co16     Co       0.36665    0.74624    0.90000    1.000
    Co17     Co       0.19967    0.73345    0.89338    1.000
    Co18     Co       0.31133    0.63063    0.98825    1.000
    O66      O        0.29213    0.73385    0.94584    1.000
    H186     H        0.29430    0.77380    0.96820    1.000
    O67      O        0.16493    0.15900    0.65907    1.000
    O68      O        0.27443    0.14830    0.65893    1.000
    O69      O        0.21210    0.82680    0.84220    1.000
    O70      O        0.32302    0.84170    0.85208    1.000
    C301     C        0.22220    0.13040    0.67600    1.000
    C302     C        0.26390    0.86260    0.83421    1.000
    C303     C        0.23070    0.06660    0.72040    1.000
    C304     C        0.25140    0.93710    0.79730    1.000
    C305     C        0.19940    0.99900    0.70880    1.000
    H187     H        0.17110    0.99490    0.67410    1.000
    C306     C        0.20320    0.92680    0.74400    1.000
    H188     H        0.17820    0.87950    0.73420    1.000
    C307     C        0.28140    0.01470    0.81380    1.000
    C308     C        0.32300    0.02620    0.86610    1.000
    H189     H        0.32940    0.98380    0.89180    1.000
    C309     C        0.35370    0.09940    0.87900    1.000
    H190     H        0.38210    0.10640    0.91330    1.000
    C310     C        0.34360    0.16420    0.84160    1.000
    H191     H        0.36300    0.21480    0.85240    1.000
    C311     C        0.30630    0.15510    0.79030    1.000
    H192     H        0.30200    0.19770    0.76480    1.000
    C312     C        0.27420    0.08020    0.77620    1.000
    O71      O        0.92009    0.14390    0.94838    1.000
    O72      O        0.85538    0.04000    0.95770    1.000
    O73      O        0.15287    0.82071    0.93808    1.000
    O74      O        0.08587    0.77040    0.86544    1.000
    C313     C        0.90810    0.06910    0.94544    1.000
    C314     C        0.09590    0.82070    0.90306    1.000
    C315     C        0.95710    0.00850    0.92898    1.000
    C316     C        0.04620    0.88600    0.90946    1.000
    C317     C        0.94620    0.92680    0.94030    1.000
    H193     H        0.90850    0.91320    0.95460    1.000
    C318     C        0.98950    0.86480    0.93100    1.000
    H194     H        0.98120    0.81060    0.93890    1.000
    C319     C        0.05830    0.96500    0.89900    1.000
    C320     C        0.11590    0.98690    0.87420    1.000
    H195     H        0.14390    0.94550    0.86600    1.000
    C321     C        0.12950    0.06550    0.86280    1.000
    H196     H        0.16900    0.07870    0.85100    1.000
    C322     C        0.08370    0.12630    0.86910    1.000
    H197     H        0.09080    0.17890    0.85700    1.000
    C323     C        0.02750    0.11250    0.89240    1.000
    H198     H        0.00040    0.15510    0.90020    1.000
    C324     C        0.01440    0.03060    0.90350    1.000
    O75      O        0.42090    0.83160    0.95739    1.000
    O76      O        0.46173    0.79150    0.88708    1.000
    O77      O        0.65912    0.13870    0.92878    1.000
    O78      O        0.72659    0.08250    0.99997    1.000
    C325     C        0.46500    0.83540    0.92940    1.000
    C326     C        0.67320    0.08370    0.96349    1.000
    C327     C        0.52120    0.89660    0.94350    1.000
    C328     C        0.62270    0.01580    0.96119    1.000
    C329     C        0.50980    0.97340    0.91450    1.000
    H199     H        0.46950    0.98370    0.88990    1.000
    C330     C        0.56100    0.03190    0.92430    1.000
    H200     H        0.55450    0.08220    0.90630    1.000
    C331     C        0.63350    0.93920    0.98740    1.000
    C332     C        0.69340    0.91740    0.02270    1.000
    H201     H        0.72930    0.95400    0.02860    1.000
    C333     C        0.70030    0.84490    0.04810    1.000
    H202     H        0.73940    0.83330    0.07390    1.000
    C334     C        0.59030    0.80250    0.00100    1.000
    H203     H        0.55630    0.76340    0.99290    1.000
    C335     C        0.64730    0.78430    0.03580    1.000
    H204     H        0.65320    0.73290    0.05230    1.000
    C336     C        0.58070    0.87990    0.97640    1.000
    C337     C        0.18810    0.99650    0.71500    1.000
    H205     H        0.15310    0.98940    0.68450    1.000
    C338     C        0.20150    0.93780    0.75820    1.000
    H206     H        0.17010    0.89610    0.75750    1.000
    C339     C        0.29780    0.00540    0.80460    1.000
    C340     C        0.35140    0.01640    0.85070    1.000
    H207     H        0.36010    0.97580    0.87770    1.000
    C341     C        0.39170    0.08660    0.85660    1.000
    H208     H        0.43030    0.08900    0.88440    1.000
    C342     C        0.37410    0.15270    0.82120    1.000
    H209     H        0.39620    0.20260    0.82900    1.000
    C343     C        0.32370    0.14430    0.77440    1.000
    H210     H        0.31520    0.18740    0.74930    1.000
    C344     C        0.28480    0.07150    0.76370    1.000
    C345     C        0.93890    0.92670    0.92660    1.000
    H211     H        0.89660    0.91150    0.93220    1.000
    C346     C        0.98410    0.86630    0.91570    1.000
    H212     H        0.97060    0.81180    0.91280    1.000
    C347     C        0.06730    0.97290    0.90640    1.000
    C348     C        0.12910    0.99410    0.89510    1.000
    H213     H        0.15830    0.95340    0.88820    1.000
    C349     C        0.14740    0.07280    0.89400    1.000
    H214     H        0.18840    0.08660    0.88520    1.000
    C350     C        0.10360    0.13460    0.90620    1.000
    H215     H        0.11600    0.18940    0.90650    1.000
    C351     C        0.04430    0.11240    0.91720    1.000
    H216     H        0.01540    0.15440    0.92290    1.000
    C352     C        0.02110    0.03130    0.92110    1.000
    C353     C        0.50700    0.97710    0.94700    1.000
    H217     H        0.46280    0.99310    0.94630    1.000
    C354     C        0.55770    0.03740    0.95180    1.000
    H218     H        0.54590    0.09240    0.94840    1.000
    C355     C        0.64130    0.93170    0.96970    1.000
    C356     C        0.70740    0.90480    0.99110    1.000
    H219     H        0.74290    0.94190    0.99550    1.000
    C357     C        0.71990    0.82390    0.00580    1.000
    H220     H        0.76360    0.80790    0.02180    1.000
    C358     C        0.66910    0.76620    0.99710    1.000
    H221     H        0.67840    0.71220    0.00790    1.000
    C359     C        0.60700    0.78830    0.97350    1.000
    H222     H        0.57360    0.74860    0.96490    1.000
    C360     C        0.59060    0.87190    0.96110    1.000
    Co19     Co       0.13335    0.24624    0.60000    1.000
    Co20     Co       0.30033    0.23345    0.60662    1.000
    Co21     Co       0.18867    0.13063    0.51175    1.000
    O79      O        0.20787    0.23385    0.55416    1.000
    H223     H        0.20570    0.27380    0.53180    1.000
    O80      O        0.33507    0.65900    0.84093    1.000
    O81      O        0.22557    0.64830    0.84107    1.000
    O82      O        0.28790    0.32680    0.65780    1.000
    O83      O        0.17698    0.34170    0.64792    1.000
    C361     C        0.27780    0.63040    0.82400    1.000
    C362     C        0.23610    0.36260    0.66579    1.000
    C363     C        0.26930    0.56660    0.77960    1.000
    C364     C        0.24860    0.43710    0.70270    1.000
    C365     C        0.30060    0.49900    0.79120    1.000
    H224     H        0.32890    0.49490    0.82590    1.000
    C366     C        0.29680    0.42680    0.75600    1.000
    H225     H        0.32180    0.37950    0.76580    1.000
    C367     C        0.21860    0.51470    0.68620    1.000
    C368     C        0.17700    0.52620    0.63390    1.000
    H226     H        0.17060    0.48380    0.60820    1.000
    C369     C        0.14630    0.59940    0.62100    1.000
    H227     H        0.11790    0.60640    0.58670    1.000
    C370     C        0.15640    0.66420    0.65840    1.000
    H228     H        0.13700    0.71480    0.64760    1.000
    C371     C        0.19370    0.65510    0.70970    1.000
    H229     H        0.19800    0.69770    0.73520    1.000
    C372     C        0.22580    0.58020    0.72380    1.000
    O84      O        0.57991    0.64390    0.55162    1.000
    O85      O        0.64462    0.54000    0.54230    1.000
    O86      O        0.34713    0.32071    0.56192    1.000
    O87      O        0.41413    0.27040    0.63456    1.000
    C373     C        0.59190    0.56910    0.55456    1.000
    C374     C        0.40410    0.32070    0.59694    1.000
    C375     C        0.54290    0.50850    0.57102    1.000
    C376     C        0.45380    0.38600    0.59054    1.000
    C377     C        0.55380    0.42680    0.55970    1.000
    H230     H        0.59150    0.41320    0.54540    1.000
    C378     C        0.51050    0.36480    0.56900    1.000
    H231     H        0.51880    0.31060    0.56110    1.000
    C379     C        0.44170    0.46500    0.60100    1.000
    C380     C        0.38410    0.48690    0.62580    1.000
    H232     H        0.35610    0.44550    0.63400    1.000
    C381     C        0.37050    0.56550    0.63720    1.000
    H233     H        0.33100    0.57870    0.64900    1.000
    C382     C        0.41630    0.62630    0.63090    1.000
    H234     H        0.40920    0.67890    0.64300    1.000
    C383     C        0.47250    0.61250    0.60760    1.000
    H235     H        0.49960    0.65510    0.59980    1.000
    C384     C        0.48560    0.53060    0.59650    1.000
    O88      O        0.07910    0.33160    0.54261    1.000
    O89      O        0.03827    0.29150    0.61292    1.000
    O90      O        0.84088    0.63870    0.57122    1.000
    O91      O        0.77341    0.58250    0.50003    1.000
    C385     C        0.03500    0.33540    0.57060    1.000
    C386     C        0.82680    0.58370    0.53651    1.000
    C387     C        0.97880    0.39660    0.55650    1.000
    C388     C        0.87730    0.51580    0.53881    1.000
    C389     C        0.99020    0.47340    0.58550    1.000
    H236     H        0.03050    0.48370    0.61010    1.000
    C390     C        0.93900    0.53190    0.57570    1.000
    H237     H        0.94550    0.58220    0.59370    1.000
    C391     C        0.86650    0.43920    0.51260    1.000
    C392     C        0.80660    0.41740    0.47730    1.000
    H238     H        0.77070    0.45400    0.47140    1.000
    C393     C        0.79970    0.34490    0.45190    1.000
    H239     H        0.76060    0.33330    0.42610    1.000
    C394     C        0.90970    0.30250    0.49900    1.000
    H240     H        0.94370    0.26340    0.50710    1.000
    C395     C        0.85270    0.28430    0.46420    1.000
    H241     H        0.84680    0.23290    0.44770    1.000
    C396     C        0.91930    0.37990    0.52360    1.000
    C397     C        0.31190    0.49650    0.78500    1.000
    H242     H        0.34690    0.48940    0.81550    1.000
    C398     C        0.29850    0.43780    0.74180    1.000
    H243     H        0.32990    0.39610    0.74250    1.000
    C399     C        0.20220    0.50540    0.69540    1.000
    C400     C        0.14860    0.51640    0.64930    1.000
    H244     H        0.13990    0.47580    0.62230    1.000
    C401     C        0.10830    0.58660    0.64340    1.000
    H245     H        0.06970    0.58900    0.61560    1.000
    C402     C        0.12590    0.65270    0.67880    1.000
    H246     H        0.10380    0.70260    0.67100    1.000
    C403     C        0.17630    0.64430    0.72560    1.000
    H247     H        0.18480    0.68740    0.75070    1.000
    C404     C        0.21520    0.57150    0.73630    1.000
    C405     C        0.56110    0.42670    0.57340    1.000
    H248     H        0.60340    0.41150    0.56780    1.000
    C406     C        0.51590    0.36630    0.58430    1.000
    H249     H        0.52940    0.31180    0.58720    1.000
    C407     C        0.43270    0.47290    0.59360    1.000
    C408     C        0.37090    0.49410    0.60490    1.000
    H250     H        0.34170    0.45340    0.61180    1.000
    C409     C        0.35260    0.57280    0.60600    1.000
    H251     H        0.31160    0.58660    0.61480    1.000
    C410     C        0.39640    0.63460    0.59380    1.000
    H252     H        0.38400    0.68940    0.59350    1.000
    C411     C        0.45570    0.61240    0.58280    1.000
    H253     H        0.48460    0.65440    0.57710    1.000
    C412     C        0.47890    0.53130    0.57890    1.000
    C413     C        0.99300    0.47710    0.55300    1.000
    H254     H        0.03720    0.49310    0.55370    1.000
    C414     C        0.94230    0.53740    0.54820    1.000
    H255     H        0.95410    0.59240    0.55160    1.000
    C415     C        0.85870    0.43170    0.53030    1.000
    C416     C        0.79260    0.40480    0.50890    1.000
    H256     H        0.75710    0.44190    0.50450    1.000
    C417     C        0.78010    0.32390    0.49420    1.000
    H257     H        0.73640    0.30790    0.47820    1.000
    C418     C        0.83090    0.26620    0.50290    1.000
    H258     H        0.82160    0.21220    0.49210    1.000
    C419     C        0.89300    0.28830    0.52650    1.000
    H259     H        0.92640    0.24860    0.53510    1.000
    C420     C        0.90940    0.37190    0.53890    1.000
    Co22     Co       0.63335    0.74624    0.60000    1.000
    Co23     Co       0.80033    0.73345    0.60662    1.000
    Co24     Co       0.68867    0.63063    0.51175    1.000
    O92      O        0.70787    0.73385    0.55416    1.000
    H260     H        0.70570    0.77380    0.53180    1.000
    O93      O        0.83507    0.15900    0.84093    1.000
    O94      O        0.72557    0.14830    0.84107    1.000
    O95      O        0.78790    0.82680    0.65780    1.000
    O96      O        0.67698    0.84170    0.64792    1.000
    C421     C        0.77780    0.13040    0.82400    1.000
    C422     C        0.73610    0.86260    0.66579    1.000
    C423     C        0.76930    0.06660    0.77960    1.000
    C424     C        0.74860    0.93710    0.70270    1.000
    C425     C        0.80060    0.99900    0.79120    1.000
    H261     H        0.82890    0.99490    0.82590    1.000
    C426     C        0.79680    0.92680    0.75600    1.000
    H262     H        0.82180    0.87950    0.76580    1.000
    C427     C        0.71860    0.01470    0.68620    1.000
    C428     C        0.67700    0.02620    0.63390    1.000
    H263     H        0.67060    0.98380    0.60820    1.000
    C429     C        0.64630    0.09940    0.62100    1.000
    H264     H        0.61790    0.10640    0.58670    1.000
    C430     C        0.65640    0.16420    0.65840    1.000
    H265     H        0.63700    0.21480    0.64760    1.000
    C431     C        0.69370    0.15510    0.70970    1.000
    H266     H        0.69800    0.19770    0.73520    1.000
    C432     C        0.72580    0.08020    0.72380    1.000
    O97      O        0.07991    0.14390    0.55162    1.000
    O98      O        0.14462    0.04000    0.54230    1.000
    O99      O        0.84713    0.82071    0.56192    1.000
    O100     O        0.91413    0.77040    0.63456    1.000
    C433     C        0.09190    0.06910    0.55456    1.000
    C434     C        0.90410    0.82070    0.59694    1.000
    C435     C        0.04290    0.00850    0.57102    1.000
    C436     C        0.95380    0.88600    0.59054    1.000
    C437     C        0.05380    0.92680    0.55970    1.000
    H267     H        0.09150    0.91320    0.54540    1.000
    C438     C        0.01050    0.86480    0.56900    1.000
    H268     H        0.01880    0.81060    0.56110    1.000
    C439     C        0.94170    0.96500    0.60100    1.000
    C440     C        0.88410    0.98690    0.62580    1.000
    H269     H        0.85610    0.94550    0.63400    1.000
    C441     C        0.87050    0.06550    0.63720    1.000
    H270     H        0.83100    0.07870    0.64900    1.000
    C442     C        0.91630    0.12630    0.63090    1.000
    H271     H        0.90920    0.17890    0.64300    1.000
    C443     C        0.97250    0.11250    0.60760    1.000
    H272     H        0.99960    0.15510    0.59980    1.000
    C444     C        0.98560    0.03060    0.59650    1.000
    O101     O        0.57910    0.83160    0.54261    1.000
    O102     O        0.53827    0.79150    0.61292    1.000
    O103     O        0.34088    0.13870    0.57122    1.000
    O104     O        0.27341    0.08250    0.50003    1.000
    C445     C        0.53500    0.83540    0.57060    1.000
    C446     C        0.32680    0.08370    0.53651    1.000
    C447     C        0.47880    0.89660    0.55650    1.000
    C448     C        0.37730    0.01580    0.53881    1.000
    C449     C        0.49020    0.97340    0.58550    1.000
    H273     H        0.53050    0.98370    0.61010    1.000
    C450     C        0.43900    0.03190    0.57570    1.000
    H274     H        0.44550    0.08220    0.59370    1.000
    C451     C        0.36650    0.93920    0.51260    1.000
    C452     C        0.30660    0.91740    0.47730    1.000
    H275     H        0.27070    0.95400    0.47140    1.000
    C453     C        0.29970    0.84490    0.45190    1.000
    H276     H        0.26060    0.83330    0.42610    1.000
    C454     C        0.40970    0.80250    0.49900    1.000
    H277     H        0.44370    0.76340    0.50710    1.000
    C455     C        0.35270    0.78430    0.46420    1.000
    H278     H        0.34680    0.73290    0.44770    1.000
    C456     C        0.41930    0.87990    0.52360    1.000
    C457     C        0.81190    0.99650    0.78500    1.000
    H279     H        0.84690    0.98940    0.81550    1.000
    C458     C        0.79850    0.93780    0.74180    1.000
    H280     H        0.82990    0.89610    0.74250    1.000
    C459     C        0.70220    0.00540    0.69540    1.000
    C460     C        0.64860    0.01640    0.64930    1.000
    H281     H        0.63990    0.97580    0.62230    1.000
    C461     C        0.60830    0.08660    0.64340    1.000
    H282     H        0.56970    0.08900    0.61560    1.000
    C462     C        0.62590    0.15270    0.67880    1.000
    H283     H        0.60380    0.20260    0.67100    1.000
    C463     C        0.67630    0.14430    0.72560    1.000
    H284     H        0.68480    0.18740    0.75070    1.000
    C464     C        0.71520    0.07150    0.73630    1.000
    C465     C        0.06110    0.92670    0.57340    1.000
    H285     H        0.10340    0.91150    0.56780    1.000
    C466     C        0.01590    0.86630    0.58430    1.000
    H286     H        0.02940    0.81180    0.58720    1.000
    C467     C        0.93270    0.97290    0.59360    1.000
    C468     C        0.87090    0.99410    0.60490    1.000
    H287     H        0.84170    0.95340    0.61180    1.000
    C469     C        0.85260    0.07280    0.60600    1.000
    H288     H        0.81160    0.08660    0.61480    1.000
    C470     C        0.89640    0.13460    0.59380    1.000
    H289     H        0.88400    0.18940    0.59350    1.000
    C471     C        0.95570    0.11240    0.58280    1.000
    H290     H        0.98460    0.15440    0.57710    1.000
    C472     C        0.97890    0.03130    0.57890    1.000
    C473     C        0.49300    0.97710    0.55300    1.000
    H291     H        0.53720    0.99310    0.55370    1.000
    C474     C        0.44230    0.03740    0.54820    1.000
    H292     H        0.45410    0.09240    0.55160    1.000
    C475     C        0.35870    0.93170    0.53030    1.000
    C476     C        0.29260    0.90480    0.50890    1.000
    H293     H        0.25710    0.94190    0.50450    1.000
    C477     C        0.28010    0.82390    0.49420    1.000
    H294     H        0.23640    0.80790    0.47820    1.000
    C478     C        0.33090    0.76620    0.50290    1.000
    H295     H        0.32160    0.71220    0.49210    1.000
    C479     C        0.39300    0.78830    0.52650    1.000
    H296     H        0.42640    0.74860    0.53510    1.000
    C480     C        0.40940    0.87190    0.53890    1.000
