# CIF file generated by openbabel 3.1.0, see https://openbabel.org
data_I
_chemical_name_common 'BASJUB_clean'
_cell_length_a 13.0678
_cell_length_b 13.0678
_cell_length_c 25.914
_cell_angle_alpha 90
_cell_angle_beta 90
_cell_angle_gamma 90
_space_group_name_H-M_alt 'P 1'
_space_group_name_Hall 'P 1'
loop_
    _symmetry_equiv_pos_as_xyz
    x,y,z
loop_
    _atom_site_label
    _atom_site_type_symbol
    _atom_site_fract_x
    _atom_site_fract_y
    _atom_site_fract_z
    _atom_site_occupancy
    Co1      Co       0.75000    0.75000    0.38130    1.000
    Co2      Co       0.25000    0.25000    0.88130    1.000
    H1       H        0.76110    0.88530    0.48000    1.000
    H2       H        0.86970    0.92500    0.55010    1.000
    H3       H        0.09350    0.76570    0.47620    1.000
    H4       H        0.97280    0.72650    0.41220    1.000
    H5       H        0.29440    0.86420    0.58070    1.000
    H6       H        0.21000    0.90040    0.61860    1.000
    H7       H        0.35930    0.70810    0.68320    1.000
    H8       H        0.40070    0.78580    0.64300    1.000
    H9       H        0.21400    0.98200    0.73560    1.000
    H10      H        0.16770    0.11920    0.78780    1.000
    H11      H        0.43890    0.11810    0.85410    1.000
    H12      H        0.49050    0.98290    0.80440    1.000
    H13      H        0.73890    0.61470    0.48000    1.000
    H14      H        0.63030    0.57500    0.55010    1.000
    H15      H        0.40650    0.73430    0.47620    1.000
    H16      H        0.52720    0.77350    0.41220    1.000
    H17      H        0.20560    0.63580    0.58070    1.000
    H18      H        0.29000    0.59960    0.61860    1.000
    H19      H        0.14070    0.79190    0.68320    1.000
    H20      H        0.09930    0.71420    0.64300    1.000
    H21      H        0.28600    0.51800    0.73560    1.000
    H22      H        0.33230    0.38080    0.78780    1.000
    H23      H        0.06110    0.38190    0.85410    1.000
    H24      H        0.00950    0.51710    0.80440    1.000
    H25      H        0.11470    0.26110    0.98000    1.000
    H26      H        0.07500    0.36970    0.05010    1.000
    H27      H        0.23430    0.59350    0.97620    1.000
    H28      H        0.27350    0.47280    0.91220    1.000
    H29      H        0.13580    0.79440    0.08070    1.000
    H30      H        0.09960    0.71000    0.11860    1.000
    H31      H        0.29190    0.85930    0.18320    1.000
    H32      H        0.21420    0.90070    0.14300    1.000
    H33      H        0.01800    0.71400    0.23560    1.000
    H34      H        0.88080    0.66770    0.28780    1.000
    H35      H        0.88190    0.93890    0.35410    1.000
    H36      H        0.01710    0.99050    0.30440    1.000
    H37      H        0.38530    0.23890    0.98000    1.000
    H38      H        0.42500    0.13030    0.05010    1.000
    H39      H        0.26570    0.90650    0.97620    1.000
    H40      H        0.22650    0.02720    0.91220    1.000
    H41      H        0.36420    0.70560    0.08070    1.000
    H42      H        0.40040    0.79000    0.11860    1.000
    H43      H        0.20810    0.64070    0.18320    1.000
    H44      H        0.28580    0.59930    0.14300    1.000
    H45      H        0.48200    0.78600    0.23560    1.000
    H46      H        0.61920    0.83230    0.28780    1.000
    H47      H        0.61810    0.56110    0.35410    1.000
    H48      H        0.48290    0.50950    0.30440    1.000
    C1       C        0.82900    0.85900    0.48020    1.000
    C2       C        0.89300    0.88500    0.52210    1.000
    C3       C        0.99400    0.84700    0.51990    1.000
    C4       C        0.02500    0.79000    0.47890    1.000
    C5       C        0.95200    0.76800    0.44050    1.000
    C6       C        0.06300    0.86900    0.56510    1.000
    C7       C        0.23200    0.84600    0.59720    1.000
    C8       C        0.34400    0.76800    0.66380    1.000
    C9       C        0.39000    0.88500    0.73090    1.000
    C10      C        0.35900    0.96900    0.76350    1.000
    C11      C        0.26200    0.01000    0.75950    1.000
    C12      C        0.23500    0.09100    0.79100    1.000
    C13      C        0.39200    0.09100    0.82960    1.000
    C14      C        0.42400    0.01000    0.80000    1.000
    C15      C        0.67100    0.64100    0.48020    1.000
    C16      C        0.60700    0.61500    0.52210    1.000
    C17      C        0.50600    0.65300    0.51990    1.000
    C18      C        0.47500    0.71000    0.47890    1.000
    C19      C        0.54800    0.73200    0.44050    1.000
    C20      C        0.43700    0.63100    0.56510    1.000
    C21      C        0.26800    0.65400    0.59720    1.000
    C22      C        0.15600    0.73200    0.66380    1.000
    C23      C        0.11000    0.61500    0.73090    1.000
    C24      C        0.14100    0.53100    0.76350    1.000
    C25      C        0.23800    0.49000    0.75950    1.000
    C26      C        0.26500    0.40900    0.79100    1.000
    C27      C        0.10800    0.40900    0.82960    1.000
    C28      C        0.07600    0.49000    0.80000    1.000
    C29      C        0.14100    0.32900    0.98020    1.000
    C30      C        0.11500    0.39300    0.02210    1.000
    C31      C        0.15300    0.49400    0.01990    1.000
    C32      C        0.21000    0.52500    0.97890    1.000
    C33      C        0.23200    0.45200    0.94050    1.000
    C34      C        0.13100    0.56300    0.06510    1.000
    C35      C        0.15400    0.73200    0.09720    1.000
    C36      C        0.23200    0.84400    0.16380    1.000
    C37      C        0.11500    0.89000    0.23090    1.000
    C38      C        0.03100    0.85900    0.26350    1.000
    C39      C        0.99000    0.76200    0.25950    1.000
    C40      C        0.90900    0.73500    0.29100    1.000
    C41      C        0.90900    0.89200    0.32960    1.000
    C42      C        0.99000    0.92400    0.30000    1.000
    C43      C        0.35900    0.17100    0.98020    1.000
    C44      C        0.38500    0.10700    0.02210    1.000
    C45      C        0.34700    0.00600    0.01990    1.000
    C46      C        0.29000    0.97500    0.97890    1.000
    C47      C        0.26800    0.04800    0.94050    1.000
    C48      C        0.36900    0.93700    0.06510    1.000
    C49      C        0.34600    0.76800    0.09720    1.000
    C50      C        0.26800    0.65600    0.16380    1.000
    C51      C        0.38500    0.61000    0.23090    1.000
    C52      C        0.46900    0.64100    0.26350    1.000
    C53      C        0.51000    0.73800    0.25950    1.000
    C54      C        0.59100    0.76500    0.29100    1.000
    C55      C        0.59100    0.60800    0.32960    1.000
    C56      C        0.51000    0.57600    0.30000    1.000
    C57      C        0.25000    0.75000    0.63060    1.000
    C58      C        0.25000    0.75000    0.13060    1.000
    N1       N        0.85700    0.80000    0.44100    1.000
    N2       N        0.29800    0.13300    0.82560    1.000
    N3       N        0.64300    0.70000    0.44100    1.000
    N4       N        0.20200    0.36700    0.82560    1.000
    N5       N        0.20000    0.35700    0.94100    1.000
    N6       N        0.86700    0.79800    0.32560    1.000
    N7       N        0.30000    0.14300    0.94100    1.000
    N8       N        0.63300    0.70200    0.32560    1.000
    Cl1      Cl       0.67220    0.91760    0.38100    1.000
    Cl2      Cl       0.82780    0.58240    0.38100    1.000
    Cl3      Cl       0.08240    0.17220    0.88100    1.000
    Cl4      Cl       0.41760    0.32780    0.88100    1.000
    O1       O        0.03700    0.92000    0.60110    1.000
    O2       O        0.15410    0.82550    0.55790    1.000
    O3       O        0.31710    0.85090    0.69770    1.000
    O4       O        0.47400    0.84500    0.73230    1.000
    O5       O        0.46300    0.58000    0.60110    1.000
    O6       O        0.34590    0.67450    0.55790    1.000
    O7       O        0.18290    0.64910    0.69770    1.000
    O8       O        0.02600    0.65500    0.73230    1.000
    O9       O        0.08000    0.53700    0.10110    1.000
    O10      O        0.17450    0.65410    0.05790    1.000
    O11      O        0.14910    0.81710    0.19770    1.000
    O12      O        0.15500    0.97400    0.23230    1.000
    O13      O        0.42000    0.96300    0.10110    1.000
    O14      O        0.32550    0.84590    0.05790    1.000
    O15      O        0.35090    0.68290    0.19770    1.000
    O16      O        0.34500    0.52600    0.23230    1.000
    Co3      Co       0.25000    0.25000    0.61870    1.000
    Co4      Co       0.75000    0.75000    0.11870    1.000
    H49      H        0.23890    0.11470    0.52000    1.000
    H50      H        0.13030    0.07500    0.44990    1.000
    H51      H        0.90650    0.23430    0.52380    1.000
    H52      H        0.02720    0.27350    0.58780    1.000
    H53      H        0.70560    0.13580    0.41930    1.000
    H54      H        0.79000    0.09960    0.38140    1.000
    H55      H        0.64070    0.29190    0.31680    1.000
    H56      H        0.59930    0.21420    0.35700    1.000
    H57      H        0.78600    0.01800    0.26440    1.000
    H58      H        0.83230    0.88080    0.21220    1.000
    H59      H        0.56110    0.88190    0.14590    1.000
    H60      H        0.50950    0.01710    0.19560    1.000
    H61      H        0.26110    0.38530    0.52000    1.000
    H62      H        0.36970    0.42500    0.44990    1.000
    H63      H        0.59350    0.26570    0.52380    1.000
    H64      H        0.47280    0.22650    0.58780    1.000
    H65      H        0.79440    0.36420    0.41930    1.000
    H66      H        0.71000    0.40040    0.38140    1.000
    H67      H        0.85930    0.20810    0.31680    1.000
    H68      H        0.90070    0.28580    0.35700    1.000
    H69      H        0.71400    0.48200    0.26440    1.000
    H70      H        0.66770    0.61920    0.21220    1.000
    H71      H        0.93890    0.61810    0.14590    1.000
    H72      H        0.99050    0.48290    0.19560    1.000
    H73      H        0.88530    0.73890    0.02000    1.000
    H74      H        0.92500    0.63030    0.94990    1.000
    H75      H        0.76570    0.40650    0.02380    1.000
    H76      H        0.72650    0.52720    0.08780    1.000
    H77      H        0.86420    0.20560    0.91930    1.000
    H78      H        0.90040    0.29000    0.88140    1.000
    H79      H        0.70810    0.14070    0.81680    1.000
    H80      H        0.78580    0.09930    0.85700    1.000
    H81      H        0.98200    0.28600    0.76440    1.000
    H82      H        0.11920    0.33230    0.71220    1.000
    H83      H        0.11810    0.06110    0.64590    1.000
    H84      H        0.98290    0.00950    0.69560    1.000
    H85      H        0.61470    0.76110    0.02000    1.000
    H86      H        0.57500    0.86970    0.94990    1.000
    H87      H        0.73430    0.09350    0.02380    1.000
    H88      H        0.77350    0.97280    0.08780    1.000
    H89      H        0.63580    0.29440    0.91930    1.000
    H90      H        0.59960    0.21000    0.88140    1.000
    H91      H        0.79190    0.35930    0.81680    1.000
    H92      H        0.71420    0.40070    0.85700    1.000
    H93      H        0.51800    0.21400    0.76440    1.000
    H94      H        0.38080    0.16770    0.71220    1.000
    H95      H        0.38190    0.43890    0.64590    1.000
    H96      H        0.51710    0.49050    0.69560    1.000
    C59      C        0.17100    0.14100    0.51980    1.000
    C60      C        0.10700    0.11500    0.47790    1.000
    C61      C        0.00600    0.15300    0.48010    1.000
    C62      C        0.97500    0.21000    0.52110    1.000
    C63      C        0.04800    0.23200    0.55950    1.000
    C64      C        0.93700    0.13100    0.43490    1.000
    C65      C        0.76800    0.15400    0.40280    1.000
    C66      C        0.65600    0.23200    0.33620    1.000
    C67      C        0.61000    0.11500    0.26910    1.000
    C68      C        0.64100    0.03100    0.23650    1.000
    C69      C        0.73800    0.99000    0.24050    1.000
    C70      C        0.76500    0.90900    0.20900    1.000
    C71      C        0.60800    0.90900    0.17040    1.000
    C72      C        0.57600    0.99000    0.20000    1.000
    C73      C        0.32900    0.35900    0.51980    1.000
    C74      C        0.39300    0.38500    0.47790    1.000
    C75      C        0.49400    0.34700    0.48010    1.000
    C76      C        0.52500    0.29000    0.52110    1.000
    C77      C        0.45200    0.26800    0.55950    1.000
    C78      C        0.56300    0.36900    0.43490    1.000
    C79      C        0.73200    0.34600    0.40280    1.000
    C80      C        0.84400    0.26800    0.33620    1.000
    C81      C        0.89000    0.38500    0.26910    1.000
    C82      C        0.85900    0.46900    0.23650    1.000
    C83      C        0.76200    0.51000    0.24050    1.000
    C84      C        0.73500    0.59100    0.20900    1.000
    C85      C        0.89200    0.59100    0.17040    1.000
    C86      C        0.92400    0.51000    0.20000    1.000
    C87      C        0.85900    0.67100    0.01980    1.000
    C88      C        0.88500    0.60700    0.97790    1.000
    C89      C        0.84700    0.50600    0.98010    1.000
    C90      C        0.79000    0.47500    0.02110    1.000
    C91      C        0.76800    0.54800    0.05950    1.000
    C92      C        0.86900    0.43700    0.93490    1.000
    C93      C        0.84600    0.26800    0.90280    1.000
    C94      C        0.76800    0.15600    0.83620    1.000
    C95      C        0.88500    0.11000    0.76910    1.000
    C96      C        0.96900    0.14100    0.73650    1.000
    C97      C        0.01000    0.23800    0.74050    1.000
    C98      C        0.09100    0.26500    0.70900    1.000
    C99      C        0.09100    0.10800    0.67040    1.000
    C100     C        0.01000    0.07600    0.70000    1.000
    C101     C        0.64100    0.82900    0.01980    1.000
    C102     C        0.61500    0.89300    0.97790    1.000
    C103     C        0.65300    0.99400    0.98010    1.000
    C104     C        0.71000    0.02500    0.02110    1.000
    C105     C        0.73200    0.95200    0.05950    1.000
    C106     C        0.63100    0.06300    0.93490    1.000
    C107     C        0.65400    0.23200    0.90280    1.000
    C108     C        0.73200    0.34400    0.83620    1.000
    C109     C        0.61500    0.39000    0.76910    1.000
    C110     C        0.53100    0.35900    0.73650    1.000
    C111     C        0.49000    0.26200    0.74050    1.000
    C112     C        0.40900    0.23500    0.70900    1.000
    C113     C        0.40900    0.39200    0.67040    1.000
    C114     C        0.49000    0.42400    0.70000    1.000
    C115     C        0.75000    0.25000    0.36940    1.000
    C116     C        0.75000    0.25000    0.86940    1.000
    N9       N        0.14300    0.20000    0.55900    1.000
    N10      N        0.70200    0.86700    0.17440    1.000
    N11      N        0.35700    0.30000    0.55900    1.000
    N12      N        0.79800    0.63300    0.17440    1.000
    N13      N        0.80000    0.64300    0.05900    1.000
    N14      N        0.13300    0.20200    0.67440    1.000
    N15      N        0.70000    0.85700    0.05900    1.000
    N16      N        0.36700    0.29800    0.67440    1.000
    Cl5      Cl       0.32780    0.08240    0.61900    1.000
    Cl6      Cl       0.17220    0.41760    0.61900    1.000
    Cl7      Cl       0.91760    0.82780    0.11900    1.000
    Cl8      Cl       0.58240    0.67220    0.11900    1.000
    O17      O        0.96300    0.08000    0.39890    1.000
    O18      O        0.84590    0.17450    0.44210    1.000
    O19      O        0.68290    0.14910    0.30230    1.000
    O20      O        0.52600    0.15500    0.26770    1.000
    O21      O        0.53700    0.42000    0.39890    1.000
    O22      O        0.65410    0.32550    0.44210    1.000
    O23      O        0.81710    0.35090    0.30230    1.000
    O24      O        0.97400    0.34500    0.26770    1.000
    O25      O        0.92000    0.46300    0.89890    1.000
    O26      O        0.82550    0.34590    0.94210    1.000
    O27      O        0.85090    0.18290    0.80230    1.000
    O28      O        0.84500    0.02600    0.76770    1.000
    O29      O        0.58000    0.03700    0.89890    1.000
    O30      O        0.67450    0.15410    0.94210    1.000
    O31      O        0.64910    0.31710    0.80230    1.000
    O32      O        0.65500    0.47400    0.76770    1.000
