# CIF file generated by openbabel 3.1.0, see https://openbabel.org
data_I
_chemical_name_common 'image0'
_cell_length_a 12.1467
_cell_length_b 18.1091
_cell_length_c 24.1338
_cell_angle_alpha 107.541
_cell_angle_beta 98.67
_cell_angle_gamma 91.332
_space_group_name_H-M_alt 'P 1'
_space_group_name_Hall 'P 1'
loop_
    _symmetry_equiv_pos_as_xyz
    x,y,z
loop_
    _atom_site_label
    _atom_site_type_symbol
    _atom_site_fract_x
    _atom_site_fract_y
    _atom_site_fract_z
    _atom_site_occupancy
    C1       C        0.85550    0.95120    0.77810    1.000
    H1       H        0.89210    0.93290    0.74490    1.000
    C2       C        0.74670    0.92450    0.77549    1.000
    C3       C        0.69180    0.95080    0.82390    1.000
    H2       H        0.61810    0.93070    0.82230    1.000
    C4       C        0.62050    0.89740    0.68266    1.000
    C5       C        0.57700    0.84320    0.62361    1.000
    C6       C        0.60700    0.76430    0.60935    1.000
    C7       C        0.67210    0.73690    0.65075    1.000
    C8       C        0.71700    0.79090    0.71002    1.000
    C9       C        0.69690    0.66020    0.63613    1.000
    H3       H        0.73930    0.64150    0.66480    1.000
    C10      C        0.66010    0.60990    0.57950    1.000
    H4       H        0.67880    0.55740    0.56960    1.000
    C11      C        0.59650    0.63610    0.53752    1.000
    C12      C        0.56920    0.71440    0.55186    1.000
    C13      C        0.50620    0.74220    0.50966    1.000
    C14      C        0.47550    0.81810    0.52587    1.000
    H5       H        0.43130    0.83660    0.49760    1.000
    C15      C        0.50850    0.86730    0.58296    1.000
    H6       H        0.48330    0.91820    0.59390    1.000
    C16      C        0.47380    0.69110    0.44862    1.000
    C17      C        0.55670    0.58160    0.47796    1.000
    C18      C        0.44240    0.56060    0.38001    1.000
    C19      C        0.32950    0.56080    0.36153    1.000
    H7       H        0.28580    0.59450    0.38630    1.000
    C20      C        0.27970    0.51230    0.30725    1.000
    C21      C        0.34480    0.46170    0.27140    1.000
    H8       H        0.31110    0.42750    0.23410    1.000
    C22      C        0.45870    0.46160    0.29052    1.000
    C23      C        0.50860    0.51190    0.34471    1.000
    H9       H        0.58670    0.51300    0.35750    1.000
    C24      C        0.52740    0.40720    0.25285    1.000
    C25      C        0.21100    0.37970    0.70428    1.000
    C26      C        0.15710    0.51480    0.28452    1.000
    C27      C        0.75990    0.40480    0.18107    1.000
    H10      H        0.72710    0.43310    0.21370    1.000
    C28      C        0.78070    0.31910    0.10077    1.000
    C29      C        0.87670    0.36910    0.12242    1.000
    C30      C        0.96680    0.35530    0.09083    1.000
    C31      C        0.85630    0.25270    0.02243    1.000
    H11      H        0.84990    0.21230    0.98600    1.000
    C32      C        0.54490    0.20880    0.22319    1.000
    H12      H        0.50750    0.25290    0.24160    1.000
    C33      C        0.62330    0.13997    0.14594    1.000
    C34      C        0.70250    0.05070    0.09042    1.000
    H13      H        0.73430    0.02190    0.05760    1.000
    C35      C        0.34370    0.32940    0.08052    1.000
    H14      H        0.35080    0.37230    0.11550    1.000
    C36      C        0.22800    0.25500    0.99515    1.000
    C37      C        0.31980    0.21050    0.98201    1.000
    C38      C        0.41880    0.23000    0.02145    1.000
    C39      C        0.43740    0.12990    0.94953    1.000
    H15      H        0.46990    0.08750    0.92520    1.000
    C40      C        0.68350    0.03600    0.92594    1.000
    C41      C        0.74600    0.00651    0.87428    1.000
    C42      C        0.85510    0.03410    0.87732    1.000
    H16      H        0.89140    0.07270    0.91190    1.000
    C43      C        0.64580    0.08390    0.17349    1.000
    C44      C        0.61540    0.09380    0.22924    1.000
    C45      C        0.03080    0.03060    0.83260    1.000
    C46      C        0.91160    0.00550    0.83006    1.000
    C47      C        0.25290    0.16800    0.79624    1.000
    C48      C        0.27530    0.20040    0.74859    1.000
    C49      C        0.23890    0.27290    0.74858    1.000
    H17      H        0.20220    0.30190    0.77940    1.000
    C50      C        0.25590    0.30260    0.70404    1.000
    C51      C        0.30740    0.26000    0.65806    1.000
    H18      H        0.31820    0.27980    0.62690    1.000
    C52      C        0.34260    0.18790    0.65868    1.000
    C53      C        0.32660    0.15790    0.70323    1.000
    H19      H        0.35070    0.10820    0.70270    1.000
    C54      C        0.31820    0.10360    0.55721    1.000
    C55      C        0.36670    0.04650    0.51074    1.000
    C56      C        0.30250    0.01120    0.45734    1.000
    H20      H        0.22760    0.02440    0.45010    1.000
    C57      C        0.47740    0.02790    0.52181    1.000
    C58      C        0.54770    0.06550    0.57662    1.000
    C59      C        0.50290    0.12350    0.62359    1.000
    C60      C        0.65490    0.04430    0.58718    1.000
    H21      H        0.70010    0.06710    0.62460    1.000
    N1       N        0.69200    0.86840    0.72134    1.000
    N2       N        0.49060    0.61265    0.43742    1.000
    N3       N        0.86160    0.42397    0.17415    1.000
    N4       N        0.70580    0.34215    0.13848    1.000
    N5       N        0.76760    0.25770    0.05078    1.000
    N6       N        0.95170    0.29727    0.03914    1.000
    N7       N        0.06580    0.39507    0.10799    1.000
    H22      H        0.11830    0.38320    0.08590    1.000
    H23      H        0.07890    0.43330    0.14140    1.000
    N8       N        0.66010    0.11936    0.09292    1.000
    N9       N        0.57120    0.20616    0.16962    1.000
    N10      N        0.43430    0.28882    0.07257    1.000
    N11      N        0.24560    0.31684    0.04548    1.000
    N12      N        0.12520    0.23931    0.96344    1.000
    H24      H        0.07100    0.26850    0.97520    1.000
    H25      H        0.11170    0.19980    0.93080    1.000
    N13      N        0.49520    0.17866    0.00006    1.000
    N14      N        0.33250    0.14523    0.93611    1.000
    N15      N        0.69740    0.02537    0.13628    1.000
    N16      N        0.63620    0.04560    0.26002    1.000
    H26      H        0.61710    0.05590    0.29520    1.000
    H27      H        0.66930    0.00300    0.24550    1.000
    N17      N        0.56380    0.15971    0.25269    1.000
    N18      N        0.39170    0.13996    0.61014    1.000
    O1       O        0.77700    0.77110    0.74697    1.000
    O2       O        0.59910    0.96462    0.69739    1.000
    O3       O        0.43230    0.71671    0.40902    1.000
    O4       O        0.57780    0.51389    0.46334    1.000
    O5       O        0.48174    0.37522    0.19981    1.000
    O6       O        0.62130    0.39518    0.27422    1.000
    O7       O        0.15880    0.41006    0.74650    1.000
    O8       O        0.22720    0.40798    0.66502    1.000
    O9       O        0.10700    0.57044    0.30931    1.000
    O10      O        0.11028    0.45994    0.24050    1.000
    O11      O        0.72375    0.10193    0.96247    1.000
    O12      O        0.60130    0.99816    0.92879    1.000
    O13      O        0.19580    0.20156    0.83399    1.000
    O14      O        0.29570    0.10315    0.79685    1.000
    O15      O        0.07690    0.00679    0.78882    1.000
    O16      O        0.08294    0.07439    0.88149    1.000
    O17      O        0.55750    0.15697    0.67169    1.000
    O18      O        0.22260    0.11980    0.55065    1.000
    Zn1      Zn       0.55578    0.30174    0.14322    1.000
    Zn2      Zn       0.65469    0.16436    0.02706    1.000
    Zn3      Zn       0.95569    0.51242    0.24024    1.000
    Zn4      Zn       0.23687    0.07623    0.86112    1.000
    C61      C        0.14450    0.04880    0.22190    1.000
    H28      H        0.10790    0.06710    0.25510    1.000
    C62      C        0.25330    0.07550    0.22451    1.000
    C63      C        0.30820    0.04920    0.17610    1.000
    H29      H        0.38190    0.06930    0.17770    1.000
    C64      C        0.37950    0.10260    0.31734    1.000
    C65      C        0.42300    0.15680    0.37639    1.000
    C66      C        0.39300    0.23570    0.39065    1.000
    C67      C        0.32790    0.26310    0.34925    1.000
    C68      C        0.28300    0.20910    0.28998    1.000
    C69      C        0.30310    0.33980    0.36387    1.000
    H30      H        0.26070    0.35850    0.33520    1.000
    C70      C        0.33990    0.39010    0.42050    1.000
    H31      H        0.32120    0.44260    0.43040    1.000
    C71      C        0.40350    0.36390    0.46248    1.000
    C72      C        0.43080    0.28560    0.44814    1.000
    C73      C        0.49380    0.25780    0.49034    1.000
    C74      C        0.52450    0.18190    0.47413    1.000
    H32      H        0.56870    0.16340    0.50240    1.000
    C75      C        0.49150    0.13270    0.41704    1.000
    H33      H        0.51670    0.08180    0.40610    1.000
    C76      C        0.52620    0.30890    0.55138    1.000
    C77      C        0.44330    0.41840    0.52204    1.000
    C78      C        0.55760    0.43940    0.61999    1.000
    C79      C        0.67050    0.43920    0.63847    1.000
    H34      H        0.71420    0.40550    0.61370    1.000
    C80      C        0.72030    0.48770    0.69275    1.000
    C81      C        0.65520    0.53830    0.72860    1.000
    H35      H        0.68890    0.57250    0.76590    1.000
    C82      C        0.54130    0.53840    0.70948    1.000
    C83      C        0.49140    0.48810    0.65529    1.000
    H36      H        0.41330    0.48700    0.64250    1.000
    C84      C        0.47260    0.59280    0.74715    1.000
    C85      C        0.78900    0.62030    0.29572    1.000
    C86      C        0.84290    0.48520    0.71548    1.000
    C87      C        0.24010    0.59520    0.81893    1.000
    H37      H        0.27290    0.56690    0.78630    1.000
    C88      C        0.21930    0.68090    0.89923    1.000
    C89      C        0.12330    0.63090    0.87758    1.000
    C90      C        0.03320    0.64470    0.90917    1.000
    C91      C        0.14370    0.74730    0.97757    1.000
    H38      H        0.15010    0.78770    0.01400    1.000
    C92      C        0.45510    0.79120    0.77681    1.000
    H39      H        0.49250    0.74710    0.75840    1.000
    C93      C        0.37670    0.86003    0.85406    1.000
    C94      C        0.29750    0.94930    0.90958    1.000
    H40      H        0.26570    0.97810    0.94240    1.000
    C95      C        0.65630    0.67060    0.91948    1.000
    H41      H        0.64920    0.62770    0.88450    1.000
    C96      C        0.77200    0.74500    0.00485    1.000
    C97      C        0.68020    0.78950    0.01799    1.000
    C98      C        0.58120    0.77000    0.97855    1.000
    C99      C        0.56260    0.87010    0.05047    1.000
    H42      H        0.53010    0.91250    0.07480    1.000
    C100     C        0.31650    0.96400    0.07406    1.000
    C101     C        0.25400    0.99349    0.12572    1.000
    C102     C        0.14490    0.96590    0.12268    1.000
    H43      H        0.10860    0.92730    0.08810    1.000
    C103     C        0.35420    0.91610    0.82651    1.000
    C104     C        0.38460    0.90620    0.77076    1.000
    C105     C        0.96920    0.96940    0.16740    1.000
    C106     C        0.08840    0.99450    0.16994    1.000
    C107     C        0.74710    0.83200    0.20376    1.000
    C108     C        0.72470    0.79960    0.25141    1.000
    C109     C        0.76110    0.72710    0.25142    1.000
    H44      H        0.79780    0.69810    0.22060    1.000
    C110     C        0.74410    0.69740    0.29596    1.000
    C111     C        0.69260    0.74000    0.34194    1.000
    H45      H        0.68180    0.72020    0.37310    1.000
    C112     C        0.65740    0.81210    0.34132    1.000
    C113     C        0.67340    0.84210    0.29677    1.000
    H46      H        0.64930    0.89180    0.29730    1.000
    C114     C        0.68180    0.89640    0.44279    1.000
    C115     C        0.63330    0.95350    0.48926    1.000
    C116     C        0.69750    0.98880    0.54266    1.000
    H47      H        0.77240    0.97560    0.54990    1.000
    C117     C        0.52260    0.97210    0.47819    1.000
    C118     C        0.45230    0.93450    0.42338    1.000
    C119     C        0.49710    0.87650    0.37641    1.000
    C120     C        0.34510    0.95570    0.41282    1.000
    H48      H        0.29990    0.93290    0.37540    1.000
    N19      N        0.30800    0.13160    0.27866    1.000
    N20      N        0.50940    0.38735    0.56258    1.000
    N21      N        0.13840    0.57603    0.82585    1.000
    N22      N        0.29420    0.65785    0.86152    1.000
    N23      N        0.23240    0.74230    0.94922    1.000
    N24      N        0.04830    0.70273    0.96086    1.000
    N25      N        0.93420    0.60493    0.89201    1.000
    H49      H        0.88170    0.61680    0.91410    1.000
    H50      H        0.92110    0.56670    0.85860    1.000
    N26      N        0.33990    0.88064    0.90708    1.000
    N27      N        0.42880    0.79384    0.83038    1.000
    N28      N        0.56570    0.71118    0.92743    1.000
    N29      N        0.75440    0.68316    0.95452    1.000
    N30      N        0.87480    0.76069    0.03656    1.000
    H51      H        0.92900    0.73150    0.02480    1.000
    H52      H        0.88830    0.80020    0.06920    1.000
    N31      N        0.50480    0.82134    0.99994    1.000
    N32      N        0.66750    0.85477    0.06389    1.000
    N33      N        0.30260    0.97463    0.86372    1.000
    N34      N        0.36380    0.95440    0.73998    1.000
    H53      H        0.38290    0.94410    0.70480    1.000
    H54      H        0.33070    0.99700    0.75450    1.000
    N35      N        0.43620    0.84029    0.74731    1.000
    N36      N        0.60830    0.86004    0.38986    1.000
    O19      O        0.22300    0.22890    0.25303    1.000
    O20      O        0.40090    0.03538    0.30261    1.000
    O21      O        0.56770    0.28329    0.59098    1.000
    O22      O        0.42220    0.48611    0.53666    1.000
    O23      O        0.51826    0.62478    0.80019    1.000
    O24      O        0.37870    0.60482    0.72578    1.000
    O25      O        0.84120    0.58994    0.25350    1.000
    O26      O        0.77280    0.59202    0.33498    1.000
    O27      O        0.89300    0.42956    0.69069    1.000
    O28      O        0.88972    0.54006    0.75950    1.000
    O29      O        0.27625    0.89807    0.03753    1.000
    O30      O        0.39870    0.00184    0.07121    1.000
    O31      O        0.80420    0.79844    0.16601    1.000
    O32      O        0.70430    0.89685    0.20315    1.000
    O33      O        0.92310    0.99321    0.21118    1.000
    O34      O        0.91706    0.92561    0.11851    1.000
    O35      O        0.44250    0.84303    0.32831    1.000
    O36      O        0.77740    0.88020    0.44935    1.000
    Zn5      Zn       0.44422    0.69826    0.85678    1.000
    Zn6      Zn       0.34531    0.83564    0.97294    1.000
    Zn7      Zn       0.04431    0.48758    0.75976    1.000
    Zn8      Zn       0.76313    0.92377    0.13888    1.000
