# CIF file generated by openbabel 3.1.0, see https://openbabel.org
data_I
_chemical_name_common 'jp102463p_si_004_clean'
_cell_length_a 6.8587
_cell_length_b 11.2033
_cell_length_c 11.2033
_cell_angle_alpha 76.0022
_cell_angle_beta 72.1755
_cell_angle_gamma 72.1758
_space_group_name_H-M_alt 'P 1'
_space_group_name_Hall 'P 1'
loop_
    _symmetry_equiv_pos_as_xyz
    x,y,z
loop_
    _atom_site_label
    _atom_site_type_symbol
    _atom_site_fract_x
    _atom_site_fract_y
    _atom_site_fract_z
    _atom_site_occupancy
    Cr1      Cr       0.00000    0.00000    0.50000    1.000
    Cr2      Cr       0.50000    0.00000    0.50000    1.000
    H1       H        0.85896    0.38816    0.49534    1.000
    H2       H        0.35896    0.99534    0.88816    1.000
    H3       H        0.25754    0.38816    0.49534    1.000
    H4       H        0.75754    0.99534    0.88816    1.000
    H5       H        0.64104    0.00466    0.11184    1.000
    H6       H        0.14104    0.61184    0.50466    1.000
    H7       H        0.24246    0.00466    0.11184    1.000
    H8       H        0.74246    0.61184    0.50466    1.000
    C1       C        0.67691    0.43782    0.49558    1.000
    C2       C        0.63137    0.24021    0.49705    1.000
    C3       C        0.82309    0.00442    0.06218    1.000
    C4       C        0.36863    0.75979    0.50295    1.000
    C5       C        0.06455    0.99609    0.87481    1.000
    C6       C        0.32309    0.56218    0.50442    1.000
    C7       C        0.56455    0.37481    0.49609    1.000
    C8       C        0.13137    0.99705    0.74021    1.000
    C9       C        0.88969    0.99558    0.93782    1.000
    C10      C        0.43545    0.62519    0.50391    1.000
    C11      C        0.61031    0.56218    0.50442    1.000
    C12      C        0.93545    0.00391    0.12519    1.000
    C13      C        0.17691    0.99558    0.93782    1.000
    C14      C        0.11031    0.00442    0.06218    1.000
    C15      C        0.38969    0.43782    0.49558    1.000
    C16      C        0.86863    0.00295    0.25979    1.000
    O1       O        0.48520    0.82359    0.50353    1.000
    O2       O        0.18768    0.82359    0.50353    1.000
    O3       O        0.51480    0.17641    0.49647    1.000
    O4       O        0.68768    0.00353    0.32359    1.000
    O5       O        0.31232    0.99647    0.67641    1.000
    O6       O        0.01480    0.99647    0.67641    1.000
    O7       O        0.81232    0.17641    0.49647    1.000
    O8       O        0.75000    0.96815    0.53185    1.000
    O9       O        0.25000    0.03185    0.46815    1.000
    O10      O        0.98520    0.00353    0.32359    1.000
