# CIF file generated by openbabel 3.1.0, see https://openbabel.org
data_I
_chemical_name_common 'UKAQIH_clean'
_cell_length_a 10.7961
_cell_length_b 11.8333
_cell_length_c 14.5779
_cell_angle_alpha 73.788
_cell_angle_beta 72.083
_cell_angle_gamma 67.049
_space_group_name_H-M_alt 'P 1'
_space_group_name_Hall 'P 1'
loop_
    _symmetry_equiv_pos_as_xyz
    x,y,z
loop_
    _atom_site_label
    _atom_site_type_symbol
    _atom_site_fract_x
    _atom_site_fract_y
    _atom_site_fract_z
    _atom_site_occupancy
    Gd1      Gd       0.01074    0.44771    0.37185    1.000
    Gd2      Gd       0.98926    0.55229    0.62815    1.000
    P1       P        0.85437    0.28033    0.27438    1.000
    P2       P        0.14563    0.71967    0.72562    1.000
    H1       H        0.48820    0.36890    0.55520    1.000
    H2       H        0.04350    0.10230    0.38220    1.000
    H3       H        0.71650    0.32480    0.46370    1.000
    H4       H        0.03310    0.18140    0.10640    1.000
    H5       H        0.36220    0.37640    0.31860    1.000
    H6       H        0.59110    0.32520    0.22840    1.000
    H7       H        0.81160    0.07990    0.21940    1.000
    H8       H        0.74890    0.57340    0.98190    1.000
    H9       H        0.07190    0.25760    0.93750    1.000
    H10      H        0.10740    0.88540    0.43580    1.000
    H11      H        0.88760    0.86300    0.26530    1.000
    H12      H        0.71880    0.50190    0.15160    1.000
    H13      H        0.51180    0.63110    0.44480    1.000
    H14      H        0.95650    0.89770    0.61780    1.000
    H15      H        0.28350    0.67520    0.53630    1.000
    H16      H        0.96690    0.81860    0.89360    1.000
    H17      H        0.63780    0.62360    0.68140    1.000
    H18      H        0.40890    0.67480    0.77160    1.000
    H19      H        0.18840    0.92010    0.78060    1.000
    H20      H        0.25110    0.42660    0.01810    1.000
    H21      H        0.92810    0.74240    0.06250    1.000
    H22      H        0.89260    0.11460    0.56420    1.000
    H23      H        0.11240    0.13700    0.73470    1.000
    H24      H        0.28120    0.49810    0.84840    1.000
    C1       C        0.86830    0.33300    0.14480    1.000
    C2       C        0.50890    0.36160    0.48850    1.000
    C3       C        0.91890    0.11190    0.29770    1.000
    C4       C        0.67490    0.32150    0.33700    1.000
    C5       C        0.00890    0.05420    0.36050    1.000
    C6       C        0.64480    0.33440    0.43440    1.000
    C7       C        0.40360    0.37800    0.44540    1.000
    C8       C        0.97530    0.26110    0.08120    1.000
    C9       C        0.43420    0.36510    0.34820    1.000
    C10      C        0.57020    0.33560    0.29440    1.000
    C11      C        0.87260    0.04040    0.26270    1.000
    C12      C        0.91190    0.42090    0.94320    1.000
    C13      C        0.93590    0.46560    0.83420    1.000
    C14      C        0.80720    0.49390    0.00700    1.000
    C15      C        0.99750    0.30610    0.98070    1.000
    C16      C        0.00080    0.85420    0.35790    1.000
    C17      C        0.04790    0.92500    0.39140    1.000
    C18      C        0.91590    0.91190    0.29120    1.000
    C19      C        0.03470    0.71610    0.39830    1.000
    C20      C        0.25700    0.41470    0.50440    1.000
    C21      C        0.78790    0.45030    0.10800    1.000
    C22      C        0.13170    0.66700    0.85520    1.000
    C23      C        0.49110    0.63840    0.51150    1.000
    C24      C        0.08110    0.88810    0.70230    1.000
    C25      C        0.32510    0.67850    0.66300    1.000
    C26      C        0.99110    0.94580    0.63950    1.000
    C27      C        0.35520    0.66560    0.56560    1.000
    C28      C        0.59640    0.62200    0.55460    1.000
    C29      C        0.02470    0.73890    0.91880    1.000
    C30      C        0.56580    0.63490    0.65180    1.000
    C31      C        0.42980    0.66440    0.70560    1.000
    C32      C        0.12740    0.95960    0.73730    1.000
    C33      C        0.08810    0.57910    0.05680    1.000
    C34      C        0.06410    0.53440    0.16580    1.000
    C35      C        0.19280    0.50610    0.99300    1.000
    C36      C        0.00250    0.69390    0.01930    1.000
    C37      C        0.99920    0.14580    0.64210    1.000
    C38      C        0.95210    0.07500    0.60860    1.000
    C39      C        0.08410    0.08810    0.70880    1.000
    C40      C        0.96530    0.28390    0.60170    1.000
    C41      C        0.74300    0.58530    0.49560    1.000
    C42      C        0.21210    0.54970    0.89200    1.000
    O1       O        0.05670    0.42570    0.78364    1.000
    O2       O        0.23320    0.44080    0.58755    1.000
    O3       O        0.06560    0.68010    0.48120    1.000
    O4       O        0.83610    0.54120    0.79568    1.000
    O5       O        0.02720    0.64950    0.34803    1.000
    O6       O        0.16120    0.42470    0.46648    1.000
    O7       O        0.93080    0.32870    0.31507    1.000
    O8       O        0.94330    0.57430    0.21636    1.000
    O9       O        0.76680    0.55920    0.41245    1.000
    O10      O        0.93440    0.31990    0.51880    1.000
    O11      O        0.16390    0.45880    0.20432    1.000
    O12      O        0.97280    0.35050    0.65197    1.000
    O13      O        0.83880    0.57530    0.53352    1.000
    O14      O        0.06920    0.67130    0.68493    1.000
