# CIF file generated by openbabel 3.1.0, see https://openbabel.org
data_I
_chemical_name_common 'image0'
_cell_length_a 27.837
_cell_length_b 9.892
_cell_length_c 10.446
_cell_angle_alpha 90
_cell_angle_beta 90
_cell_angle_gamma 90
_space_group_name_H-M_alt 'P 1'
_space_group_name_Hall 'P 1'
loop_
    _symmetry_equiv_pos_as_xyz
    x,y,z
loop_
    _atom_site_label
    _atom_site_type_symbol
    _atom_site_fract_x
    _atom_site_fract_y
    _atom_site_fract_z
    _atom_site_occupancy
    Ni1      Ni       0.72340    0.15539    0.47870    1.000
    O1       O        0.75374    0.15650    0.80244    1.000
    Ni2      Ni       0.78181    0.16436    0.99058    1.000
    O2       O        0.70045    0.10000    0.65583    1.000
    N1       N        0.71294    0.20860    0.04363    1.000
    H1       H        0.71090    0.21970    0.13090    1.000
    H2       H        0.70260    0.28660    0.00440    1.000
    O3       O        0.75749    0.97198    0.02599    1.000
    O4       O        0.68951    0.85589    0.02648    1.000
    O5       O        0.81191    0.17290    0.17924    1.000
    O6       O        0.74605    0.20287    0.29598    1.000
    O7       O        0.75891    0.97176    0.45490    1.000
    O8       O        0.81758    0.82774    0.49740    1.000
    N2       N        0.79037    0.23340    0.51195    1.000
    H3       H        0.78930    0.32640    0.51420    1.000
    H4       H        0.80230    0.20260    0.58880    1.000
    N3       N        0.66120    0.06010    0.41118    1.000
    C1       C        0.61952    0.06610    0.47130    1.000
    H5       H        0.61700    0.12410    0.54350    1.000
    C2       C        0.58014    0.99490    0.43640    1.000
    H6       H        0.55100    0.00430    0.48290    1.000
    C3       C        0.58266    0.90760    0.33170    1.000
    C4       C        0.62570    0.90000    0.26590    1.000
    H7       H        0.62910    0.84430    0.19240    1.000
    C5       C        0.66366    0.97660    0.31120    1.000
    H8       H        0.69360    0.96930    0.26800    1.000
    C6       C        0.54064    0.83010    0.28590    1.000
    C7       C        0.51139    0.75850    0.37460    1.000
    H9       H        0.51810    0.76360    0.46360    1.000
    C8       C        0.47332    0.68150    0.33170    1.000
    H10      H        0.45500    0.63080    0.39150    1.000
    C9       C        0.46157    0.67680    0.20600    1.000
    C10      C        0.48973    0.74240    0.11970    1.000
    H11      H        0.48220    0.73870    0.03100    1.000
    C11      C        0.52945    0.81460    0.16150    1.000
    H12      H        0.54980    0.85500    0.09930    1.000
    C12      C        0.42084    0.59230    0.16350    1.000
    C13      C        0.37859    0.58490    0.22570    1.000
    H13      H        0.37470    0.63660    0.30170    1.000
    C14      C        0.34092    0.50710    0.18540    1.000
    H14      H        0.31190    0.50800    0.23340    1.000
    N4       N        0.34351    0.43000    0.08120    1.000
    C15      C        0.38373    0.43390    0.01670    1.000
    H15      H        0.38640    0.38080    0.94120    1.000
    C16      C        0.42227    0.51130    0.05330    1.000
    H16      H        0.45060    0.51010    0.00270    1.000
    C17      C        0.71280    0.12280    0.76800    1.000
    C18      C        0.67193    0.10690    0.86010    1.000
    H17      H        0.65330    0.02620    0.83440    1.000
    H18      H        0.65050    0.18620    0.85030    1.000
    C19      C        0.68422    0.09280    0.00210    1.000
    H19      H        0.65390    0.08850    0.05340    1.000
    C20      C        0.71298    0.96220    0.02120    1.000
    C21      C        0.79073    0.18730    0.28300    1.000
    C22      C        0.82088    0.18680    0.40470    1.000
    H20      H        0.84840    0.25070    0.39400    1.000
    C23      C        0.84017    0.04660    0.43050    1.000
    H21      H        0.86360    0.05200    0.50150    1.000
    H22      H        0.85760    0.01510    0.35350    1.000
    C24      C        0.80231    0.94220    0.46470    1.000
    Ni3      Ni       0.27660    0.84461    0.47870    1.000
    O9       O        0.24626    0.84350    0.80244    1.000
    Ni4      Ni       0.21819    0.83564    0.99058    1.000
    O10      O        0.29955    0.90000    0.65583    1.000
    N5       N        0.28706    0.79140    0.04363    1.000
    H23      H        0.28910    0.78030    0.13090    1.000
    H24      H        0.29740    0.71340    0.00440    1.000
    O11      O        0.24251    0.02802    0.02599    1.000
    O12      O        0.31049    0.14411    0.02648    1.000
    O13      O        0.18809    0.82710    0.17924    1.000
    O14      O        0.25395    0.79713    0.29598    1.000
    O15      O        0.24109    0.02824    0.45490    1.000
    O16      O        0.18242    0.17226    0.49740    1.000
    N6       N        0.20963    0.76660    0.51195    1.000
    H25      H        0.21070    0.67360    0.51420    1.000
    H26      H        0.19770    0.79740    0.58880    1.000
    N7       N        0.33880    0.93990    0.41118    1.000
    C25      C        0.38048    0.93390    0.47130    1.000
    H27      H        0.38300    0.87590    0.54350    1.000
    C26      C        0.41986    0.00510    0.43640    1.000
    H28      H        0.44900    0.99570    0.48290    1.000
    C27      C        0.41734    0.09240    0.33170    1.000
    C28      C        0.37430    0.10000    0.26590    1.000
    H29      H        0.37090    0.15570    0.19240    1.000
    C29      C        0.33634    0.02340    0.31120    1.000
    H30      H        0.30640    0.03070    0.26800    1.000
    C30      C        0.45936    0.16990    0.28590    1.000
    C31      C        0.48861    0.24150    0.37460    1.000
    H31      H        0.48190    0.23640    0.46360    1.000
    C32      C        0.52668    0.31850    0.33170    1.000
    H32      H        0.54500    0.36920    0.39150    1.000
    C33      C        0.53843    0.32320    0.20600    1.000
    C34      C        0.51027    0.25760    0.11970    1.000
    H33      H        0.51780    0.26130    0.03100    1.000
    C35      C        0.47055    0.18540    0.16150    1.000
    H34      H        0.45020    0.14500    0.09930    1.000
    C36      C        0.57916    0.40770    0.16350    1.000
    C37      C        0.62141    0.41510    0.22570    1.000
    H35      H        0.62530    0.36340    0.30170    1.000
    C38      C        0.65908    0.49290    0.18540    1.000
    H36      H        0.68810    0.49200    0.23340    1.000
    N8       N        0.65649    0.57000    0.08120    1.000
    C39      C        0.61627    0.56610    0.01670    1.000
    H37      H        0.61360    0.61920    0.94120    1.000
    C40      C        0.57773    0.48870    0.05330    1.000
    H38      H        0.54940    0.48990    0.00270    1.000
    C41      C        0.28720    0.87720    0.76800    1.000
    C42      C        0.32807    0.89310    0.86010    1.000
    H39      H        0.34670    0.97380    0.83440    1.000
    H40      H        0.34950    0.81380    0.85030    1.000
    C43      C        0.31578    0.90720    0.00210    1.000
    H41      H        0.34610    0.91150    0.05340    1.000
    C44      C        0.28702    0.03780    0.02120    1.000
    C45      C        0.20927    0.81270    0.28300    1.000
    C46      C        0.17912    0.81320    0.40470    1.000
    H42      H        0.15160    0.74930    0.39400    1.000
    C47      C        0.15983    0.95340    0.43050    1.000
    H43      H        0.13640    0.94800    0.50150    1.000
    H44      H        0.14240    0.98490    0.35350    1.000
    C48      C        0.19769    0.05780    0.46470    1.000
    Ni5      Ni       0.77660    0.65539    0.52130    1.000
    O17      O        0.74626    0.65650    0.19756    1.000
    Ni6      Ni       0.71819    0.66436    0.00942    1.000
    O18      O        0.79955    0.60000    0.34417    1.000
    N9       N        0.78706    0.70860    0.95637    1.000
    H45      H        0.78910    0.71970    0.86910    1.000
    H46      H        0.79740    0.78660    0.99560    1.000
    O19      O        0.74251    0.47198    0.97401    1.000
    O20      O        0.81049    0.35589    0.97352    1.000
    O21      O        0.68809    0.67290    0.82076    1.000
    O22      O        0.75395    0.70287    0.70402    1.000
    O23      O        0.74109    0.47176    0.54510    1.000
    O24      O        0.68242    0.32774    0.50260    1.000
    N10      N        0.70963    0.73340    0.48805    1.000
    H47      H        0.71070    0.82640    0.48580    1.000
    H48      H        0.69770    0.70260    0.41120    1.000
    N11      N        0.83880    0.56010    0.58882    1.000
    C49      C        0.88048    0.56610    0.52870    1.000
    H49      H        0.88300    0.62410    0.45650    1.000
    C50      C        0.91986    0.49490    0.56360    1.000
    H50      H        0.94900    0.50430    0.51710    1.000
    C51      C        0.91734    0.40760    0.66830    1.000
    C52      C        0.87430    0.40000    0.73410    1.000
    H51      H        0.87090    0.34430    0.80760    1.000
    C53      C        0.83634    0.47660    0.68880    1.000
    H52      H        0.80640    0.46930    0.73200    1.000
    C54      C        0.95936    0.33010    0.71410    1.000
    C55      C        0.98861    0.25850    0.62540    1.000
    H53      H        0.98190    0.26360    0.53640    1.000
    C56      C        0.02668    0.18150    0.66830    1.000
    H54      H        0.04500    0.13080    0.60850    1.000
    C57      C        0.03843    0.17680    0.79400    1.000
    C58      C        0.01027    0.24240    0.88030    1.000
    H55      H        0.01780    0.23870    0.96900    1.000
    C59      C        0.97055    0.31460    0.83850    1.000
    H56      H        0.95020    0.35500    0.90070    1.000
    C60      C        0.07916    0.09230    0.83650    1.000
    C61      C        0.12141    0.08490    0.77430    1.000
    H57      H        0.12530    0.13660    0.69830    1.000
    C62      C        0.15908    0.00710    0.81460    1.000
    H58      H        0.18810    0.00800    0.76660    1.000
    N12      N        0.15649    0.93000    0.91880    1.000
    C63      C        0.11627    0.93390    0.98330    1.000
    H59      H        0.11360    0.88080    0.05880    1.000
    C64      C        0.07773    0.01130    0.94670    1.000
    H60      H        0.04940    0.01010    0.99730    1.000
    C65      C        0.78720    0.62280    0.23200    1.000
    C66      C        0.82807    0.60690    0.13990    1.000
    H61      H        0.84670    0.52620    0.16560    1.000
    H62      H        0.84950    0.68620    0.14970    1.000
    C67      C        0.81578    0.59280    0.99790    1.000
    H63      H        0.84610    0.58850    0.94660    1.000
    C68      C        0.78702    0.46220    0.97880    1.000
    C69      C        0.70927    0.68730    0.71700    1.000
    C70      C        0.67912    0.68680    0.59530    1.000
    H64      H        0.65160    0.75070    0.60600    1.000
    C71      C        0.65983    0.54660    0.56950    1.000
    H65      H        0.63640    0.55200    0.49850    1.000
    H66      H        0.64240    0.51510    0.64650    1.000
    C72      C        0.69769    0.44220    0.53530    1.000
    Ni7      Ni       0.22340    0.34461    0.52130    1.000
    O25      O        0.25374    0.34350    0.19756    1.000
    Ni8      Ni       0.28181    0.33564    0.00942    1.000
    O26      O        0.20045    0.40000    0.34417    1.000
    N13      N        0.21294    0.29140    0.95637    1.000
    H67      H        0.21090    0.28030    0.86910    1.000
    H68      H        0.20260    0.21340    0.99560    1.000
    O27      O        0.25749    0.52802    0.97401    1.000
    O28      O        0.18951    0.64411    0.97352    1.000
    O29      O        0.31191    0.32710    0.82076    1.000
    O30      O        0.24605    0.29713    0.70402    1.000
    O31      O        0.25891    0.52824    0.54510    1.000
    O32      O        0.31758    0.67226    0.50260    1.000
    N14      N        0.29037    0.26660    0.48805    1.000
    H69      H        0.28930    0.17360    0.48580    1.000
    H70      H        0.30230    0.29740    0.41120    1.000
    N15      N        0.16120    0.43990    0.58882    1.000
    C73      C        0.11952    0.43390    0.52870    1.000
    H71      H        0.11700    0.37590    0.45650    1.000
    C74      C        0.08014    0.50510    0.56360    1.000
    H72      H        0.05100    0.49570    0.51710    1.000
    C75      C        0.08266    0.59240    0.66830    1.000
    C76      C        0.12570    0.60000    0.73410    1.000
    H73      H        0.12910    0.65570    0.80760    1.000
    C77      C        0.16366    0.52340    0.68880    1.000
    H74      H        0.19360    0.53070    0.73200    1.000
    C78      C        0.04064    0.66990    0.71410    1.000
    C79      C        0.01139    0.74150    0.62540    1.000
    H75      H        0.01810    0.73640    0.53640    1.000
    C80      C        0.97332    0.81850    0.66830    1.000
    H76      H        0.95500    0.86920    0.60850    1.000
    C81      C        0.96157    0.82320    0.79400    1.000
    C82      C        0.98973    0.75760    0.88030    1.000
    H77      H        0.98220    0.76130    0.96900    1.000
    C83      C        0.02945    0.68540    0.83850    1.000
    H78      H        0.04980    0.64500    0.90070    1.000
    C84      C        0.92084    0.90770    0.83650    1.000
    C85      C        0.87859    0.91510    0.77430    1.000
    H79      H        0.87470    0.86340    0.69830    1.000
    C86      C        0.84092    0.99290    0.81460    1.000
    H80      H        0.81190    0.99200    0.76660    1.000
    N16      N        0.84351    0.07000    0.91880    1.000
    C87      C        0.88373    0.06610    0.98330    1.000
    H81      H        0.88640    0.11920    0.05880    1.000
    C88      C        0.92227    0.98870    0.94670    1.000
    H82      H        0.95060    0.98990    0.99730    1.000
    C89      C        0.21280    0.37720    0.23200    1.000
    C90      C        0.17193    0.39310    0.13990    1.000
    H83      H        0.15330    0.47380    0.16560    1.000
    H84      H        0.15050    0.31380    0.14970    1.000
    C91      C        0.18422    0.40720    0.99790    1.000
    H85      H        0.15390    0.41150    0.94660    1.000
    C92      C        0.21298    0.53780    0.97880    1.000
    C93      C        0.29073    0.31270    0.71700    1.000
    C94      C        0.32088    0.31320    0.59530    1.000
    H86      H        0.34840    0.24930    0.60600    1.000
    C95      C        0.34017    0.45340    0.56950    1.000
    H87      H        0.36360    0.44800    0.49850    1.000
    H88      H        0.35760    0.48490    0.64650    1.000
    C96      C        0.30231    0.55780    0.53530    1.000
