# CIF file generated by openbabel 3.1.0, see https://openbabel.org
data_I
_chemical_name_common 'YADMIB_clean'
_cell_length_a 10.0816
_cell_length_b 10.7844
_cell_length_c 13.7316
_cell_angle_alpha 79.174
_cell_angle_beta 78.771
_cell_angle_gamma 86.355
_space_group_name_H-M_alt 'P 1'
_space_group_name_Hall 'P 1'
loop_
    _symmetry_equiv_pos_as_xyz
    x,y,z
loop_
    _atom_site_label
    _atom_site_type_symbol
    _atom_site_fract_x
    _atom_site_fract_y
    _atom_site_fract_z
    _atom_site_occupancy
    Er1      Er       0.18176    0.07776    0.20374    1.000
    Er2      Er       0.81824    0.92224    0.79626    1.000
    Co1      Co       0.50000    0.50000    0.00000    1.000
    H1       H        0.17120    0.32930    0.34720    1.000
    H2       H        0.15430    0.67340    0.42380    1.000
    H3       H        0.21970    0.64060    0.13180    1.000
    H4       H        0.14160    0.54740    0.75940    1.000
    H5       H        0.13380    0.43020    0.91570    1.000
    H6       H        0.14420    0.11840    0.81120    1.000
    H7       H        0.15430    0.22700    0.65090    1.000
    H8       H        0.80540    0.14730    0.46250    1.000
    H9       H        0.41040    0.15800    0.45870    1.000
    H10      H        0.67630    0.08530    0.21650    1.000
    H11      H        0.49230    0.52170    0.62910    1.000
    H12      H        0.48500    0.59320    0.77750    1.000
    H13      H        0.46460    0.25030    0.92970    1.000
    H14      H        0.48330    0.16700    0.78490    1.000
    H15      H        0.11990    0.35370    0.51810    1.000
    H16      H        0.61690    0.15400    0.61940    1.000
    H17      H        0.82880    0.67070    0.65280    1.000
    H18      H        0.84570    0.32660    0.57620    1.000
    H19      H        0.78030    0.35940    0.86820    1.000
    H20      H        0.85840    0.45260    0.24060    1.000
    H21      H        0.86620    0.56980    0.08430    1.000
    H22      H        0.85580    0.88160    0.18880    1.000
    H23      H        0.84570    0.77300    0.34910    1.000
    H24      H        0.19460    0.85270    0.53750    1.000
    H25      H        0.58960    0.84200    0.54130    1.000
    H26      H        0.32370    0.91470    0.78350    1.000
    H27      H        0.50770    0.47830    0.37090    1.000
    H28      H        0.51500    0.40680    0.22250    1.000
    H29      H        0.53540    0.74970    0.07030    1.000
    H30      H        0.51670    0.83300    0.21510    1.000
    H31      H        0.88010    0.64630    0.48190    1.000
    H32      H        0.38310    0.84600    0.38060    1.000
    C1       C        0.20100    0.47260    0.22770    1.000
    C2       C        0.17770    0.41650    0.32910    1.000
    C3       C        0.16400    0.49090    0.40410    1.000
    C4       C        0.16550    0.62230    0.37510    1.000
    C5       C        0.18330    0.67570    0.27500    1.000
    C6       C        0.20410    0.60280    0.19960    1.000
    C7       C        0.18690    0.81630    0.24820    1.000
    C8       C        0.23180    0.39260    0.14740    1.000
    C9       C        0.16510    0.48310    0.58300    1.000
    C10      C        0.15060    0.40000    0.68580    1.000
    C11      C        0.14320    0.45970    0.76820    1.000
    C12      C        0.13850    0.38840    0.86170    1.000
    C13      C        0.14480    0.20610    0.80040    1.000
    C14      C        0.15050    0.27060    0.70370    1.000
    C15      C        0.76400    0.11290    0.33100    1.000
    C16      C        0.73510    0.14140    0.42890    1.000
    C17      C        0.60570    0.16030    0.47430    1.000
    C18      C        0.49940    0.14790    0.42620    1.000
    C19      C        0.52620    0.12040    0.33020    1.000
    C20      C        0.65860    0.10320    0.28150    1.000
    C21      C        0.90920    0.09810    0.28300    1.000
    C22      C        0.40730    0.10840    0.28230    1.000
    C23      C        0.49420    0.29350    0.59020    1.000
    C24      C        0.49060    0.33640    0.69000    1.000
    C25      C        0.48960    0.46450    0.68920    1.000
    C26      C        0.48450    0.50670    0.77890    1.000
    C27      C        0.47420    0.30510    0.86790    1.000
    C28      C        0.48280    0.25400    0.78160    1.000
    C29      C        0.79900    0.52740    0.77230    1.000
    C30      C        0.82230    0.58350    0.67090    1.000
    C31      C        0.83600    0.50910    0.59590    1.000
    C32      C        0.83450    0.37770    0.62490    1.000
    C33      C        0.81670    0.32430    0.72500    1.000
    C34      C        0.79590    0.39720    0.80040    1.000
    C35      C        0.81310    0.18370    0.75180    1.000
    C36      C        0.76820    0.60740    0.85260    1.000
    C37      C        0.83490    0.51690    0.41700    1.000
    C38      C        0.84940    0.60000    0.31420    1.000
    C39      C        0.85680    0.54030    0.23180    1.000
    C40      C        0.86150    0.61160    0.13830    1.000
    C41      C        0.85520    0.79390    0.19960    1.000
    C42      C        0.84950    0.72940    0.29630    1.000
    C43      C        0.23600    0.88710    0.66900    1.000
    C44      C        0.26490    0.85860    0.57110    1.000
    C45      C        0.39430    0.83970    0.52570    1.000
    C46      C        0.50060    0.85210    0.57380    1.000
    C47      C        0.47380    0.87960    0.66980    1.000
    C48      C        0.34140    0.89680    0.71850    1.000
    C49      C        0.09080    0.90190    0.71700    1.000
    C50      C        0.59270    0.89160    0.71770    1.000
    C51      C        0.50580    0.70650    0.40980    1.000
    C52      C        0.50940    0.66360    0.31000    1.000
    C53      C        0.51040    0.53550    0.31080    1.000
    C54      C        0.51550    0.49330    0.22110    1.000
    C55      C        0.52580    0.69490    0.13210    1.000
    C56      C        0.51720    0.74600    0.21840    1.000
    N1       N        0.14570    0.43060    0.50460    1.000
    N2       N        0.14000    0.26240    0.88090    1.000
    N3       N        0.57870    0.19570    0.57200    1.000
    N4       N        0.47880    0.42900    0.86770    1.000
    N5       N        0.85430    0.56940    0.49540    1.000
    N6       N        0.86000    0.73760    0.11910    1.000
    N7       N        0.42130    0.80430    0.42800    1.000
    N8       N        0.52120    0.57100    0.13230    1.000
    O1       O        0.30590    0.43440    0.06540    1.000
    O2       O        0.17930    0.28530    0.16650    1.000
    O3       O        0.17030    0.87290    0.16210    1.000
    O4       O        0.20750    0.88000    0.31020    1.000
    O5       O        0.19260    0.59300    0.57490    1.000
    O6       O        0.94390    0.09850    0.18920    1.000
    O7       O        0.99840    0.08410    0.33560    1.000
    O8       O        0.42420    0.09210    0.19100    1.000
    O9       O        0.29050    0.11560    0.33140    1.000
    O10      O        0.42480    0.35030    0.53320    1.000
    O11      O        0.69410    0.56560    0.93460    1.000
    O12      O        0.82070    0.71470    0.83350    1.000
    O13      O        0.82970    0.12710    0.83790    1.000
    O14      O        0.79250    0.12000    0.68980    1.000
    O15      O        0.80740    0.40700    0.42510    1.000
    O16      O        0.05610    0.90150    0.81080    1.000
    O17      O        0.00160    0.91590    0.66440    1.000
    O18      O        0.57580    0.90790    0.80900    1.000
    O19      O        0.70950    0.88440    0.66860    1.000
    O20      O        0.57520    0.64970    0.46680    1.000
