# CIF file generated by openbabel 3.1.0, see https://openbabel.org
data_I
_chemical_name_common 'image0'
_cell_length_a 8.945
_cell_length_b 14.856
_cell_length_c 19.861
_cell_angle_alpha 91.644
_cell_angle_beta 101.974
_cell_angle_gamma 93.755
_space_group_name_H-M_alt 'P 1'
_space_group_name_Hall 'P 1'
loop_
    _symmetry_equiv_pos_as_xyz
    x,y,z
loop_
    _atom_site_label
    _atom_site_type_symbol
    _atom_site_fract_x
    _atom_site_fract_y
    _atom_site_fract_z
    _atom_site_occupancy
    Cd1      Cd       0.95981    0.02052    0.27183    1.000
    N1       N        0.78450    0.96800    0.17891    1.000
    N2       N        0.65800    0.89940    0.08237    1.000
    N3       N        0.21110    0.54700    0.96044    1.000
    N4       N        0.40420    0.63780    0.94616    1.000
    N5       N        0.85090    0.91339    0.77785    1.000
    N6       N        0.69710    0.86210    0.84331    1.000
    O1       O        0.83980    0.52699    0.89670    1.000
    O2       O        0.91490    0.67361    0.89670    1.000
    O3       O        0.98110    0.13819    0.35219    1.000
    O4       O        0.79220    0.15518    0.26364    1.000
    O5       O        0.14900    0.87443    0.23842    1.000
    O6       O        0.13360    0.94224    0.33649    1.000
    C1       C        0.68310    0.88060    0.96325    1.000
    H1       H        0.74280    0.93490    0.96700    1.000
    C2       C        0.62650    0.84820    0.01876    1.000
    C3       C        0.53660    0.76780    0.01364    1.000
    H2       H        0.50020    0.74690    0.05140    1.000
    C4       C        0.50190    0.71890    0.95103    1.000
    C5       C        0.55650    0.74860    0.89493    1.000
    H3       H        0.53300    0.71540    0.85320    1.000
    C6       C        0.64720    0.82900    0.90227    1.000
    C7       C        0.79670    0.92940    0.12041    1.000
    H4       H        0.88900    0.92320    0.10680    1.000
    C8       C        0.63010    0.96320    0.17870    1.000
    H5       H        0.58720    0.98540    0.21410    1.000
    C9       C        0.55030    0.92170    0.11980    1.000
    H6       H        0.44450    0.91030    0.10690    1.000
    C10      C        0.27680    0.62860    0.97112    1.000
    H7       H        0.23920    0.67520    0.99360    1.000
    C11      C        0.30250    0.50080    0.92650    1.000
    H8       H        0.28520    0.44020    0.91220    1.000
    C12      C        0.42110    0.55590    0.91690    1.000
    H9       H        0.49880    0.54120    0.89470    1.000
    C13      C        0.84190    0.89250    0.84038    1.000
    H10      H        0.92410    0.89780    0.87800    1.000
    C14      C        0.70550    0.89600    0.73832    1.000
    H11      H        0.67750    0.90510    0.69140    1.000
    C15      C        0.60980    0.86410    0.77742    1.000
    H12      H        0.50600    0.84680    0.76300    1.000
    C16      C        0.85780    0.60040    0.86687    1.000
    C17      C        0.81090    0.59610    0.78944    1.000
    C18      C        0.75490    0.51510    0.75288    1.000
    H13      H        0.73890    0.46340    0.77660    1.000
    C19      C        0.72320    0.51110    0.68189    1.000
    H14      H        0.68750    0.45640    0.65830    1.000
    C20      C        0.74370    0.58750    0.64482    1.000
    C21      C        0.79540    0.66880    0.68124    1.000
    H15      H        0.80740    0.72090    0.65750    1.000
    C22      C        0.82910    0.67290    0.75232    1.000
    H16      H        0.86450    0.72770    0.77580    1.000
    C23      C        0.70870    0.58080    0.56813    1.000
    C24      C        0.74650    0.50570    0.53353    1.000
    H17      H        0.79640    0.46060    0.55880    1.000
    C25      C        0.71140    0.49660    0.46210    1.000
    C26      C        0.63630    0.56470    0.42521    1.000
    H18      H        0.61480    0.56010    0.37730    1.000
    C27      C        0.59240    0.63950    0.45837    1.000
    C28      C        0.63250    0.64760    0.53003    1.000
    H19      H        0.60800    0.69840    0.55280    1.000
    C29      C        0.75170    0.41520    0.42684    1.000
    C30      C        0.65710    0.37780    0.36625    1.000
    H20      H        0.56610    0.40360    0.34830    1.000
    C31      C        0.69650    0.30340    0.33269    1.000
    H21      H        0.63290    0.28090    0.29170    1.000
    C32      C        0.82850    0.26140    0.35869    1.000
    C33      C        0.92260    0.29730    0.41961    1.000
    H22      H        0.01170    0.27000    0.43830    1.000
    C34      C        0.88480    0.37320    0.45260    1.000
    H23      H        0.94990    0.39660    0.49290    1.000
    C35      C        0.87020    0.17920    0.32210    1.000
    C36      C        0.49630    0.70650    0.41882    1.000
    C37      C        0.49790    0.72100    0.35010    1.000
    H24      H        0.56550    0.69130    0.32900    1.000
    C38      C        0.40060    0.77910    0.31226    1.000
    H25      H        0.40290    0.78690    0.26620    1.000
    C39      C        0.30030    0.82560    0.34222    1.000
    C40      C        0.29990    0.81190    0.41080    1.000
    H26      H        0.23460    0.84300    0.43220    1.000
    C41      C        0.39470    0.75290    0.44803    1.000
    H27      H        0.39010    0.74410    0.49380    1.000
    C42      C        0.18630    0.88500    0.30190    1.000
    Cd2      Cd       0.04019    0.97948    0.72817    1.000
    N7       N        0.21550    0.03200    0.82109    1.000
    N8       N        0.34200    0.10060    0.91763    1.000
    N9       N        0.78890    0.45300    0.03956    1.000
    N10      N        0.59580    0.36220    0.05384    1.000
    N11      N        0.14910    0.08661    0.22215    1.000
    N12      N        0.30290    0.13790    0.15669    1.000
    O7       O        0.16020    0.47301    0.10330    1.000
    O8       O        0.08510    0.32639    0.10330    1.000
    O9       O        0.01890    0.86181    0.64781    1.000
    O10      O        0.20780    0.84482    0.73636    1.000
    O11      O        0.85100    0.12557    0.76158    1.000
    O12      O        0.86640    0.05776    0.66351    1.000
    C43      C        0.31690    0.11940    0.03675    1.000
    H28      H        0.25720    0.06510    0.03300    1.000
    C44      C        0.37350    0.15180    0.98124    1.000
    C45      C        0.46340    0.23220    0.98636    1.000
    H29      H        0.49980    0.25310    0.94860    1.000
    C46      C        0.49810    0.28110    0.04897    1.000
    C47      C        0.44350    0.25140    0.10507    1.000
    H30      H        0.46700    0.28460    0.14680    1.000
    C48      C        0.35280    0.17100    0.09773    1.000
    C49      C        0.20330    0.07060    0.87959    1.000
    H31      H        0.11100    0.07680    0.89320    1.000
    C50      C        0.36990    0.03680    0.82130    1.000
    H32      H        0.41280    0.01460    0.78590    1.000
    C51      C        0.44970    0.07830    0.88020    1.000
    H33      H        0.55550    0.08970    0.89310    1.000
    C52      C        0.72320    0.37140    0.02888    1.000
    H34      H        0.76080    0.32480    0.00640    1.000
    C53      C        0.69750    0.49920    0.07350    1.000
    H35      H        0.71480    0.55980    0.08780    1.000
    C54      C        0.57890    0.44410    0.08310    1.000
    H36      H        0.50120    0.45880    0.10530    1.000
    C55      C        0.15810    0.10750    0.15962    1.000
    H37      H        0.07590    0.10220    0.12200    1.000
    C56      C        0.29450    0.10400    0.26168    1.000
    H38      H        0.32250    0.09490    0.30860    1.000
    C57      C        0.39020    0.13590    0.22258    1.000
    H39      H        0.49400    0.15320    0.23700    1.000
    C58      C        0.14220    0.39960    0.13313    1.000
    C59      C        0.18910    0.40390    0.21056    1.000
    C60      C        0.24510    0.48490    0.24712    1.000
    H40      H        0.26110    0.53660    0.22340    1.000
    C61      C        0.27680    0.48890    0.31811    1.000
    H41      H        0.31250    0.54360    0.34170    1.000
    C62      C        0.25630    0.41250    0.35518    1.000
    C63      C        0.20460    0.33120    0.31876    1.000
    H42      H        0.19260    0.27910    0.34250    1.000
    C64      C        0.17090    0.32710    0.24768    1.000
    H43      H        0.13550    0.27230    0.22420    1.000
    C65      C        0.29130    0.41920    0.43187    1.000
    C66      C        0.25350    0.49430    0.46647    1.000
    H44      H        0.20360    0.53940    0.44120    1.000
    C67      C        0.28860    0.50340    0.53790    1.000
    C68      C        0.36370    0.43530    0.57479    1.000
    H45      H        0.38520    0.43990    0.62270    1.000
    C69      C        0.40760    0.36050    0.54163    1.000
    C70      C        0.36750    0.35240    0.46997    1.000
    H46      H        0.39200    0.30160    0.44720    1.000
    C71      C        0.24830    0.58480    0.57316    1.000
    C72      C        0.34290    0.62220    0.63375    1.000
    H47      H        0.43390    0.59640    0.65170    1.000
    C73      C        0.30350    0.69660    0.66731    1.000
    H48      H        0.36710    0.71910    0.70830    1.000
    C74      C        0.17150    0.73860    0.64131    1.000
    C75      C        0.07740    0.70270    0.58039    1.000
    H49      H        0.98830    0.73000    0.56170    1.000
    C76      C        0.11520    0.62680    0.54740    1.000
    H50      H        0.05010    0.60340    0.50710    1.000
    C77      C        0.12980    0.82080    0.67790    1.000
    C78      C        0.50370    0.29350    0.58118    1.000
    C79      C        0.50210    0.27900    0.64990    1.000
    H51      H        0.43450    0.30870    0.67100    1.000
    C80      C        0.59940    0.22090    0.68774    1.000
    H52      H        0.59710    0.21310    0.73380    1.000
    C81      C        0.69970    0.17440    0.65778    1.000
    C82      C        0.70010    0.18810    0.58920    1.000
    H53      H        0.76540    0.15700    0.56780    1.000
    C83      C        0.60530    0.24710    0.55197    1.000
    H54      H        0.60990    0.25590    0.50620    1.000
    C84      C        0.81370    0.11500    0.69810    1.000
    Cd3      Cd       0.00000    0.50000    0.00000    1.000
