# CIF file generated by openbabel 3.1.0, see https://openbabel.org
data_I
_chemical_name_common 'MEFZUU_clean5b'
_cell_length_a 38.1428
_cell_length_b 38.1428
_cell_length_c 39.2456
_cell_angle_alpha 66.4777
_cell_angle_beta 66.478
_cell_angle_gamma 100.295
_space_group_name_H-M_alt 'P 1'
_space_group_name_Hall 'P 1'
loop_
    _symmetry_equiv_pos_as_xyz
    x,y,z
loop_
    _atom_site_label
    _atom_site_type_symbol
    _atom_site_fract_x
    _atom_site_fract_y
    _atom_site_fract_z
    _atom_site_occupancy
    Mn1      Mn       0.25000    0.00000    0.25000    1.000
    Mn2      Mn       0.00000    0.25000    0.25000    1.000
    Mn3      Mn       0.25000    0.25000    0.25000    1.000
    Mn4      Mn       0.00000    0.00000    0.25000    1.000
    Mn5      Mn       0.34170    0.34170    0.14617    1.000
    Mn6      Mn       0.01213    0.01213    0.14617    1.000
    Mn7      Mn       0.15830    0.15830    0.35383    1.000
    Mn8      Mn       0.48787    0.48787    0.35383    1.000
    Mn9      Mn       0.01458    0.29276    0.00000    1.000
    Mn10     Mn       0.48542    0.20725    0.00000    1.000
    Mn11     Mn       0.20725    0.48542    0.00000    1.000
    Mn12     Mn       0.29276    0.01458    0.00000    1.000
    H13      H        0.35165    0.12985    0.22070    1.000
    H14      H        0.27320    0.14190    0.13500    1.000
    H15      H        0.28410    0.16780    0.20550    1.000
    H16      H        0.38605    0.26695    0.10140    1.000
    H17      H        0.36965    0.15345    0.11780    1.000
    H18      H        0.42765    0.14945    0.22070    1.000
    H19      H        0.09180    0.22310    0.13500    1.000
    H20      H        0.01040    0.12670    0.20550    1.000
    H21      H        0.01255    0.13165    0.10140    1.000
    H22      H        0.01255    0.22875    0.11780    1.000
    H23      H        0.37015    0.14835    0.27930    1.000
    H24      H        0.35810    0.22680    0.36500    1.000
    H25      H        0.33220    0.21590    0.29450    1.000
    H26      H        0.23305    0.11395    0.39860    1.000
    H27      H        0.34655    0.13035    0.38220    1.000
    H28      H        0.35055    0.07235    0.27930    1.000
    H29      H        0.27690    0.40820    0.36500    1.000
    H30      H        0.37330    0.48960    0.29450    1.000
    H31      H        0.36835    0.48745    0.39860    1.000
    H32      H        0.27125    0.48745    0.38220    1.000
    H33      H        0.14835    0.37015    0.27930    1.000
    H34      H        0.22680    0.35810    0.36500    1.000
    H35      H        0.21590    0.33220    0.29450    1.000
    H36      H        0.11395    0.23305    0.39860    1.000
    H37      H        0.13035    0.34655    0.38220    1.000
    H38      H        0.07235    0.35055    0.27930    1.000
    H39      H        0.40820    0.27690    0.36500    1.000
    H40      H        0.48960    0.37330    0.29450    1.000
    H41      H        0.48745    0.36835    0.39860    1.000
    H42      H        0.48745    0.27125    0.38220    1.000
    H43      H        0.12985    0.35165    0.22070    1.000
    H44      H        0.14190    0.27320    0.13500    1.000
    H45      H        0.16780    0.28410    0.20550    1.000
    H46      H        0.26695    0.38605    0.10140    1.000
    H47      H        0.15345    0.36965    0.11780    1.000
    H48      H        0.14945    0.42765    0.22070    1.000
    H49      H        0.22310    0.09180    0.13500    1.000
    H50      H        0.12670    0.01040    0.20550    1.000
    H51      H        0.13165    0.01255    0.10140    1.000
    H52      H        0.22875    0.01255    0.11780    1.000
    C53      C        0.33605    0.10155    0.23400    1.000
    C54      C        0.30804    0.08366    0.22400    1.000
    C55      C        0.29953    0.10703    0.19294    1.000
    C56      C        0.27158    0.08924    0.18438    1.000
    C57      C        0.26225    0.11295    0.15240    1.000
    C58      C        0.32319    0.15308    0.16633    1.000
    C59      C        0.30945    0.17915    0.17980    1.000
    C60      C        0.33272    0.22122    0.15587    1.000
    C61      C        0.37015    0.23825    0.11770    1.000
    C62      C        0.38458    0.21298    0.10315    1.000
    C63      C        0.36053    0.17053    0.12754    1.000
    C64      C        0.31750    0.24920    0.17080    1.000
    C65      C        0.42635    0.23115    0.06250    1.000
    C66      C        0.42995    0.16445    0.23400    1.000
    C67      C        0.46796    0.19234    0.22400    1.000
    C68      C        0.00753    0.20003    0.19294    1.000
    C69      C        0.04404    0.22638    0.18438    1.000
    C70      C        0.08535    0.23465    0.15240    1.000
    C71      C        0.01048    0.18059    0.16633    1.000
    C72      C        0.01075    0.14105    0.17980    1.000
    C73      C        0.01141    0.12292    0.15587    1.000
    C74      C        0.01215    0.14405    0.11770    1.000
    C75      C        0.01227    0.18388    0.10315    1.000
    C76      C        0.01193    0.20193    0.12754    1.000
    C77      C        0.01170    0.08000    0.17080    1.000
    C78      C        0.01115    0.20635    0.06250    1.000
    C79      C        0.39845    0.16395    0.26600    1.000
    C80      C        0.41634    0.19196    0.27600    1.000
    C81      C        0.39297    0.20047    0.30706    1.000
    C82      C        0.41076    0.22842    0.31562    1.000
    C83      C        0.38705    0.23775    0.34760    1.000
    C84      C        0.34692    0.17681    0.33367    1.000
    C85      C        0.32085    0.19055    0.32020    1.000
    C86      C        0.27879    0.16729    0.34413    1.000
    C87      C        0.26175    0.12985    0.38230    1.000
    C88      C        0.28703    0.11543    0.39685    1.000
    C89      C        0.32947    0.13947    0.37246    1.000
    C90      C        0.25080    0.18250    0.32920    1.000
    C91      C        0.26885    0.07365    0.43750    1.000
    C92      C        0.33555    0.07005    0.26600    1.000
    C93      C        0.30766    0.03204    0.27600    1.000
    C94      C        0.29997    0.49247    0.30706    1.000
    C95      C        0.27362    0.45596    0.31562    1.000
    C96      C        0.26535    0.41465    0.34760    1.000
    C97      C        0.31942    0.48952    0.33367    1.000
    C98      C        0.35895    0.48925    0.32020    1.000
    C99      C        0.37709    0.48859    0.34413    1.000
    C100     C        0.35595    0.48785    0.38230    1.000
    C101     C        0.31612    0.48773    0.39685    1.000
    C102     C        0.29807    0.48807    0.37246    1.000
    C103     C        0.42000    0.48830    0.32920    1.000
    C104     C        0.29365    0.48885    0.43750    1.000
    C105     C        0.16395    0.39845    0.26600    1.000
    C106     C        0.19196    0.41634    0.27600    1.000
    C107     C        0.20047    0.39297    0.30706    1.000
    C108     C        0.22842    0.41076    0.31562    1.000
    C109     C        0.23775    0.38705    0.34760    1.000
    C110     C        0.17682    0.34692    0.33367    1.000
    C111     C        0.19055    0.32085    0.32020    1.000
    C112     C        0.16729    0.27879    0.34413    1.000
    C113     C        0.12985    0.26175    0.38230    1.000
    C114     C        0.11543    0.28703    0.39685    1.000
    C115     C        0.13947    0.32947    0.37246    1.000
    C116     C        0.18250    0.25080    0.32920    1.000
    C117     C        0.07365    0.26885    0.43750    1.000
    C118     C        0.07005    0.33555    0.26600    1.000
    C119     C        0.03204    0.30766    0.27600    1.000
    C120     C        0.49247    0.29997    0.30706    1.000
    C121     C        0.45596    0.27362    0.31562    1.000
    C122     C        0.41465    0.26535    0.34760    1.000
    C123     C        0.48952    0.31942    0.33367    1.000
    C124     C        0.48925    0.35895    0.32020    1.000
    C125     C        0.48859    0.37708    0.34413    1.000
    C126     C        0.48785    0.35595    0.38230    1.000
    C127     C        0.48773    0.31613    0.39685    1.000
    C128     C        0.48807    0.29807    0.37246    1.000
    C129     C        0.48830    0.42000    0.32920    1.000
    C130     C        0.48885    0.29365    0.43750    1.000
    C131     C        0.10155    0.33605    0.23400    1.000
    C132     C        0.08366    0.30804    0.22400    1.000
    C133     C        0.10703    0.29953    0.19294    1.000
    C134     C        0.08924    0.27158    0.18438    1.000
    C135     C        0.11295    0.26225    0.15240    1.000
    C136     C        0.15309    0.32319    0.16633    1.000
    C137     C        0.17915    0.30945    0.17980    1.000
    C138     C        0.22122    0.33271    0.15587    1.000
    C139     C        0.23825    0.37015    0.11770    1.000
    C140     C        0.21298    0.38458    0.10315    1.000
    C141     C        0.17053    0.36053    0.12754    1.000
    C142     C        0.24920    0.31750    0.17080    1.000
    C143     C        0.23115    0.42635    0.06250    1.000
    C144     C        0.16445    0.42995    0.23400    1.000
    C145     C        0.19234    0.46796    0.22400    1.000
    C146     C        0.20003    0.00753    0.19294    1.000
    C147     C        0.22638    0.04404    0.18438    1.000
    C148     C        0.23465    0.08535    0.15240    1.000
    C149     C        0.18059    0.01049    0.16633    1.000
    C150     C        0.14105    0.01075    0.17980    1.000
    C151     C        0.12292    0.01141    0.15587    1.000
    C152     C        0.14405    0.01215    0.11770    1.000
    C153     C        0.18388    0.01227    0.10315    1.000
    C154     C        0.20193    0.01193    0.12754    1.000
    C155     C        0.08000    0.01170    0.17080    1.000
    C156     C        0.20635    0.01115    0.06250    1.000
    N157     N        0.24918    0.04738    0.20344    1.000
    N158     N        0.04738    0.24918    0.20344    1.000
    N159     N        0.45262    0.25082    0.29656    1.000
    N160     N        0.25082    0.45262    0.29656    1.000
    N161     N        0.29120    0.04120    0.25000    1.000
    N162     N        0.45880    0.20880    0.25000    1.000
    N163     N        0.20880    0.45880    0.25000    1.000
    N164     N        0.04120    0.29120    0.25000    1.000
    Cl165    Cl       0.04150    0.35295    0.00000    1.000
    Cl166    Cl       0.45850    0.14705    0.00000    1.000
    Cl167    Cl       0.14705    0.45850    0.00000    1.000
    Cl168    Cl       0.35295    0.04150    0.00000    1.000
    Cl169    Cl       0.19219    0.00158    0.30623    1.000
    Cl170    Cl       0.00158    0.19219    0.30623    1.000
    Cl171    Cl       0.49842    0.30782    0.19377    1.000
    Cl172    Cl       0.30782    0.49842    0.19377    1.000
    O173     O        0.28492    0.23250    0.20629    1.000
    O174     O        0.33965    0.28705    0.14700    1.000
    O175     O        0.45033    0.26733    0.04715    1.000
    O176     O        0.43381    0.20780    0.04809    1.000
    O177     O        0.00879    0.06122    0.20629    1.000
    O178     O        0.01335    0.06595    0.14700    1.000
    O179     O        0.00252    0.18553    0.04715    1.000
    O180     O        0.01810    0.24411    0.04809    1.000
    O181     O        0.26751    0.21509    0.29371    1.000
    O182     O        0.21295    0.16035    0.35300    1.000
    O183     O        0.23268    0.04967    0.45285    1.000
    O184     O        0.29220    0.06619    0.45191    1.000
    O185     O        0.43879    0.49121    0.29371    1.000
    O186     O        0.43405    0.48665    0.35300    1.000
    O187     O        0.31448    0.49748    0.45285    1.000
    O188     O        0.25589    0.48190    0.45191    1.000
    O189     O        0.21509    0.26751    0.29371    1.000
    O190     O        0.16035    0.21295    0.35300    1.000
    O191     O        0.04968    0.23267    0.45285    1.000
    O192     O        0.06619    0.29220    0.45191    1.000
    O193     O        0.49121    0.43879    0.29371    1.000
    O194     O        0.48665    0.43405    0.35300    1.000
    O195     O        0.49748    0.31448    0.45285    1.000
    O196     O        0.48190    0.25589    0.45191    1.000
    O197     O        0.23250    0.28492    0.20629    1.000
    O198     O        0.28705    0.33965    0.14700    1.000
    O199     O        0.26733    0.45033    0.04715    1.000
    O200     O        0.20780    0.43381    0.04809    1.000
    O201     O        0.06122    0.00880    0.20629    1.000
    O202     O        0.06595    0.01335    0.14700    1.000
    O203     O        0.18553    0.00252    0.04715    1.000
    O204     O        0.24411    0.01810    0.04809    1.000
    Mn205    Mn       0.75000    0.00000    0.25000    1.000
    Mn206    Mn       0.50000    0.25000    0.25000    1.000
    Mn207    Mn       0.75000    0.25000    0.25000    1.000
    Mn208    Mn       0.50000    0.00000    0.25000    1.000
    Mn209    Mn       0.84170    0.34170    0.14617    1.000
    Mn210    Mn       0.51213    0.01213    0.14617    1.000
    Mn211    Mn       0.65830    0.15830    0.35383    1.000
    Mn212    Mn       0.98787    0.48787    0.35383    1.000
    Mn213    Mn       0.51459    0.29276    0.00000    1.000
    Mn214    Mn       0.98542    0.20725    0.00000    1.000
    Mn215    Mn       0.70725    0.48542    0.00000    1.000
    Mn216    Mn       0.79276    0.01458    0.00000    1.000
    H217     H        0.85165    0.12985    0.22070    1.000
    H218     H        0.77320    0.14190    0.13500    1.000
    H219     H        0.78410    0.16780    0.20550    1.000
    H220     H        0.88605    0.26695    0.10140    1.000
    H221     H        0.86965    0.15345    0.11780    1.000
    H222     H        0.92765    0.14945    0.22070    1.000
    H223     H        0.59180    0.22310    0.13500    1.000
    H224     H        0.51040    0.12670    0.20550    1.000
    H225     H        0.51255    0.13165    0.10140    1.000
    H226     H        0.51255    0.22875    0.11780    1.000
    H227     H        0.87015    0.14835    0.27930    1.000
    H228     H        0.85810    0.22680    0.36500    1.000
    H229     H        0.83220    0.21590    0.29450    1.000
    H230     H        0.73305    0.11395    0.39860    1.000
    H231     H        0.84655    0.13035    0.38220    1.000
    H232     H        0.85055    0.07235    0.27930    1.000
    H233     H        0.77690    0.40820    0.36500    1.000
    H234     H        0.87330    0.48960    0.29450    1.000
    H235     H        0.86835    0.48745    0.39860    1.000
    H236     H        0.77125    0.48745    0.38220    1.000
    H237     H        0.64835    0.37015    0.27930    1.000
    H238     H        0.72680    0.35810    0.36500    1.000
    H239     H        0.71590    0.33220    0.29450    1.000
    H240     H        0.61395    0.23305    0.39860    1.000
    H241     H        0.63035    0.34655    0.38220    1.000
    H242     H        0.57235    0.35055    0.27930    1.000
    H243     H        0.90820    0.27690    0.36500    1.000
    H244     H        0.98960    0.37330    0.29450    1.000
    H245     H        0.98745    0.36835    0.39860    1.000
    H246     H        0.98745    0.27125    0.38220    1.000
    H247     H        0.62985    0.35165    0.22070    1.000
    H248     H        0.64190    0.27320    0.13500    1.000
    H249     H        0.66780    0.28410    0.20550    1.000
    H250     H        0.76695    0.38605    0.10140    1.000
    H251     H        0.65345    0.36965    0.11780    1.000
    H252     H        0.64945    0.42765    0.22070    1.000
    H253     H        0.72310    0.09180    0.13500    1.000
    H254     H        0.62670    0.01040    0.20550    1.000
    H255     H        0.63165    0.01255    0.10140    1.000
    H256     H        0.72875    0.01255    0.11780    1.000
    C257     C        0.83605    0.10155    0.23400    1.000
    C258     C        0.80804    0.08366    0.22400    1.000
    C259     C        0.79953    0.10703    0.19294    1.000
    C260     C        0.77158    0.08924    0.18438    1.000
    C261     C        0.76225    0.11295    0.15240    1.000
    C262     C        0.82319    0.15308    0.16633    1.000
    C263     C        0.80945    0.17915    0.17980    1.000
    C264     C        0.83272    0.22122    0.15587    1.000
    C265     C        0.87015    0.23825    0.11770    1.000
    C266     C        0.88458    0.21298    0.10315    1.000
    C267     C        0.86053    0.17053    0.12754    1.000
    C268     C        0.81750    0.24920    0.17080    1.000
    C269     C        0.92635    0.23115    0.06250    1.000
    C270     C        0.92995    0.16445    0.23400    1.000
    C271     C        0.96796    0.19234    0.22400    1.000
    C272     C        0.50753    0.20003    0.19294    1.000
    C273     C        0.54404    0.22638    0.18438    1.000
    C274     C        0.58535    0.23465    0.15240    1.000
    C275     C        0.51049    0.18058    0.16633    1.000
    C276     C        0.51075    0.14105    0.17980    1.000
    C277     C        0.51142    0.12292    0.15587    1.000
    C278     C        0.51215    0.14405    0.11770    1.000
    C279     C        0.51228    0.18388    0.10315    1.000
    C280     C        0.51193    0.20193    0.12754    1.000
    C281     C        0.51170    0.08000    0.17080    1.000
    C282     C        0.51115    0.20635    0.06250    1.000
    C283     C        0.89845    0.16395    0.26600    1.000
    C284     C        0.91634    0.19196    0.27600    1.000
    C285     C        0.89297    0.20047    0.30706    1.000
    C286     C        0.91076    0.22842    0.31562    1.000
    C287     C        0.88705    0.23775    0.34760    1.000
    C288     C        0.84692    0.17681    0.33367    1.000
    C289     C        0.82085    0.19055    0.32020    1.000
    C290     C        0.77879    0.16729    0.34413    1.000
    C291     C        0.76175    0.12985    0.38230    1.000
    C292     C        0.78703    0.11543    0.39685    1.000
    C293     C        0.82947    0.13947    0.37246    1.000
    C294     C        0.75080    0.18250    0.32920    1.000
    C295     C        0.76885    0.07365    0.43750    1.000
    C296     C        0.83555    0.07005    0.26600    1.000
    C297     C        0.80766    0.03204    0.27600    1.000
    C298     C        0.79997    0.49247    0.30706    1.000
    C299     C        0.77362    0.45596    0.31562    1.000
    C300     C        0.76535    0.41465    0.34760    1.000
    C301     C        0.81942    0.48952    0.33367    1.000
    C302     C        0.85895    0.48925    0.32020    1.000
    C303     C        0.87709    0.48859    0.34413    1.000
    C304     C        0.85595    0.48785    0.38230    1.000
    C305     C        0.81613    0.48773    0.39685    1.000
    C306     C        0.79807    0.48807    0.37246    1.000
    C307     C        0.92000    0.48830    0.32920    1.000
    C308     C        0.79365    0.48885    0.43750    1.000
    C309     C        0.66395    0.39845    0.26600    1.000
    C310     C        0.69196    0.41634    0.27600    1.000
    C311     C        0.70047    0.39297    0.30706    1.000
    C312     C        0.72842    0.41076    0.31562    1.000
    C313     C        0.73775    0.38705    0.34760    1.000
    C314     C        0.67682    0.34692    0.33367    1.000
    C315     C        0.69055    0.32085    0.32020    1.000
    C316     C        0.66729    0.27879    0.34413    1.000
    C317     C        0.62985    0.26175    0.38230    1.000
    C318     C        0.61543    0.28703    0.39685    1.000
    C319     C        0.63947    0.32947    0.37246    1.000
    C320     C        0.68250    0.25080    0.32920    1.000
    C321     C        0.57365    0.26885    0.43750    1.000
    C322     C        0.57005    0.33555    0.26600    1.000
    C323     C        0.53204    0.30766    0.27600    1.000
    C324     C        0.99247    0.29997    0.30706    1.000
    C325     C        0.95596    0.27362    0.31562    1.000
    C326     C        0.91465    0.26535    0.34760    1.000
    C327     C        0.98952    0.31942    0.33367    1.000
    C328     C        0.98925    0.35895    0.32020    1.000
    C329     C        0.98859    0.37708    0.34413    1.000
    C330     C        0.98785    0.35595    0.38230    1.000
    C331     C        0.98773    0.31613    0.39685    1.000
    C332     C        0.98807    0.29807    0.37246    1.000
    C333     C        0.98830    0.42000    0.32920    1.000
    C334     C        0.98885    0.29365    0.43750    1.000
    C335     C        0.60155    0.33605    0.23400    1.000
    C336     C        0.58366    0.30804    0.22400    1.000
    C337     C        0.60703    0.29953    0.19294    1.000
    C338     C        0.58924    0.27158    0.18438    1.000
    C339     C        0.61295    0.26225    0.15240    1.000
    C340     C        0.65309    0.32319    0.16633    1.000
    C341     C        0.67915    0.30945    0.17980    1.000
    C342     C        0.72122    0.33271    0.15587    1.000
    C343     C        0.73825    0.37015    0.11770    1.000
    C344     C        0.71298    0.38458    0.10315    1.000
    C345     C        0.67053    0.36053    0.12754    1.000
    C346     C        0.74920    0.31750    0.17080    1.000
    C347     C        0.73115    0.42635    0.06250    1.000
    C348     C        0.66445    0.42995    0.23400    1.000
    C349     C        0.69234    0.46796    0.22400    1.000
    C350     C        0.70003    0.00753    0.19294    1.000
    C351     C        0.72638    0.04404    0.18438    1.000
    C352     C        0.73465    0.08535    0.15240    1.000
    C353     C        0.68059    0.01049    0.16633    1.000
    C354     C        0.64105    0.01075    0.17980    1.000
    C355     C        0.62292    0.01141    0.15587    1.000
    C356     C        0.64405    0.01215    0.11770    1.000
    C357     C        0.68388    0.01227    0.10315    1.000
    C358     C        0.70193    0.01193    0.12754    1.000
    C359     C        0.58000    0.01170    0.17080    1.000
    C360     C        0.70635    0.01115    0.06250    1.000
    N361     N        0.74918    0.04738    0.20344    1.000
    N362     N        0.54738    0.24918    0.20344    1.000
    N363     N        0.95262    0.25082    0.29656    1.000
    N364     N        0.75082    0.45262    0.29656    1.000
    N365     N        0.79120    0.04120    0.25000    1.000
    N366     N        0.95880    0.20880    0.25000    1.000
    N367     N        0.70880    0.45880    0.25000    1.000
    N368     N        0.54120    0.29120    0.25000    1.000
    Cl369    Cl       0.54150    0.35295    0.00000    1.000
    Cl370    Cl       0.95850    0.14705    0.00000    1.000
    Cl371    Cl       0.64705    0.45850    0.00000    1.000
    Cl372    Cl       0.85295    0.04150    0.00000    1.000
    Cl373    Cl       0.69219    0.00158    0.30623    1.000
    Cl374    Cl       0.80782    0.49842    0.19377    1.000
    O375     O        0.78492    0.23250    0.20629    1.000
    O376     O        0.83965    0.28705    0.14700    1.000
    O377     O        0.95033    0.26733    0.04715    1.000
    O378     O        0.93381    0.20780    0.04809    1.000
    O379     O        0.50879    0.06121    0.20629    1.000
    O380     O        0.51335    0.06595    0.14700    1.000
    O381     O        0.50253    0.18553    0.04715    1.000
    O382     O        0.51810    0.24411    0.04809    1.000
    O383     O        0.76751    0.21509    0.29371    1.000
    O384     O        0.71295    0.16035    0.35300    1.000
    O385     O        0.73268    0.04967    0.45285    1.000
    O386     O        0.79220    0.06619    0.45191    1.000
    O387     O        0.93879    0.49121    0.29371    1.000
    O388     O        0.93405    0.48665    0.35300    1.000
    O389     O        0.81448    0.49748    0.45285    1.000
    O390     O        0.75589    0.48190    0.45191    1.000
    O391     O        0.71509    0.26751    0.29371    1.000
    O392     O        0.66035    0.21295    0.35300    1.000
    O393     O        0.54968    0.23267    0.45285    1.000
    O394     O        0.56619    0.29220    0.45191    1.000
    O395     O        0.99121    0.43879    0.29371    1.000
    O396     O        0.98665    0.43405    0.35300    1.000
    O397     O        0.99748    0.31447    0.45285    1.000
    O398     O        0.98190    0.25589    0.45191    1.000
    O399     O        0.73250    0.28492    0.20629    1.000
    O400     O        0.78705    0.33965    0.14700    1.000
    O401     O        0.76733    0.45033    0.04715    1.000
    O402     O        0.70780    0.43381    0.04809    1.000
    O403     O        0.56122    0.00880    0.20629    1.000
    O404     O        0.56595    0.01335    0.14700    1.000
    O405     O        0.68553    0.00252    0.04715    1.000
    O406     O        0.74411    0.01810    0.04809    1.000
    Mn407    Mn       0.25000    0.50000    0.25000    1.000
    Mn408    Mn       0.00000    0.75000    0.25000    1.000
    Mn409    Mn       0.25000    0.75000    0.25000    1.000
    Mn410    Mn       0.00000    0.50000    0.25000    1.000
    Mn411    Mn       0.34170    0.84170    0.14617    1.000
    Mn412    Mn       0.01213    0.51213    0.14617    1.000
    Mn413    Mn       0.15830    0.65830    0.35383    1.000
    Mn414    Mn       0.48787    0.98787    0.35383    1.000
    Mn415    Mn       0.01458    0.79276    0.00000    1.000
    Mn416    Mn       0.48542    0.70725    0.00000    1.000
    Mn417    Mn       0.20725    0.98542    0.00000    1.000
    Mn418    Mn       0.29276    0.51458    0.00000    1.000
    H419     H        0.35165    0.62985    0.22070    1.000
    H420     H        0.27320    0.64190    0.13500    1.000
    H421     H        0.28410    0.66780    0.20550    1.000
    H422     H        0.38605    0.76695    0.10140    1.000
    H423     H        0.36965    0.65345    0.11780    1.000
    H424     H        0.42765    0.64945    0.22070    1.000
    H425     H        0.09180    0.72310    0.13500    1.000
    H426     H        0.01040    0.62670    0.20550    1.000
    H427     H        0.01255    0.63165    0.10140    1.000
    H428     H        0.01255    0.72875    0.11780    1.000
    H429     H        0.37015    0.64835    0.27930    1.000
    H430     H        0.35810    0.72680    0.36500    1.000
    H431     H        0.33220    0.71590    0.29450    1.000
    H432     H        0.23305    0.61395    0.39860    1.000
    H433     H        0.34655    0.63035    0.38220    1.000
    H434     H        0.35055    0.57235    0.27930    1.000
    H435     H        0.27690    0.90820    0.36500    1.000
    H436     H        0.37330    0.98960    0.29450    1.000
    H437     H        0.36835    0.98745    0.39860    1.000
    H438     H        0.27125    0.98745    0.38220    1.000
    H439     H        0.14835    0.87015    0.27930    1.000
    H440     H        0.22680    0.85810    0.36500    1.000
    H441     H        0.21590    0.83220    0.29450    1.000
    H442     H        0.11395    0.73305    0.39860    1.000
    H443     H        0.13035    0.84655    0.38220    1.000
    H444     H        0.07235    0.85055    0.27930    1.000
    H445     H        0.40820    0.77690    0.36500    1.000
    H446     H        0.48960    0.87330    0.29450    1.000
    H447     H        0.48745    0.86835    0.39860    1.000
    H448     H        0.48745    0.77125    0.38220    1.000
    H449     H        0.12985    0.85165    0.22070    1.000
    H450     H        0.14190    0.77320    0.13500    1.000
    H451     H        0.16780    0.78410    0.20550    1.000
    H452     H        0.26695    0.88605    0.10140    1.000
    H453     H        0.15345    0.86965    0.11780    1.000
    H454     H        0.14945    0.92765    0.22070    1.000
    H455     H        0.22310    0.59180    0.13500    1.000
    H456     H        0.12670    0.51040    0.20550    1.000
    H457     H        0.13165    0.51255    0.10140    1.000
    H458     H        0.22875    0.51255    0.11780    1.000
    C459     C        0.33605    0.60155    0.23400    1.000
    C460     C        0.30804    0.58366    0.22400    1.000
    C461     C        0.29953    0.60703    0.19294    1.000
    C462     C        0.27158    0.58924    0.18438    1.000
    C463     C        0.26225    0.61295    0.15240    1.000
    C464     C        0.32319    0.65309    0.16633    1.000
    C465     C        0.30945    0.67915    0.17980    1.000
    C466     C        0.33272    0.72122    0.15587    1.000
    C467     C        0.37015    0.73825    0.11770    1.000
    C468     C        0.38458    0.71298    0.10315    1.000
    C469     C        0.36053    0.67053    0.12754    1.000
    C470     C        0.31750    0.74920    0.17080    1.000
    C471     C        0.42635    0.73115    0.06250    1.000
    C472     C        0.42995    0.66445    0.23400    1.000
    C473     C        0.46796    0.69234    0.22400    1.000
    C474     C        0.00753    0.70003    0.19294    1.000
    C475     C        0.04404    0.72638    0.18438    1.000
    C476     C        0.08535    0.73465    0.15240    1.000
    C477     C        0.01048    0.68059    0.16633    1.000
    C478     C        0.01075    0.64105    0.17980    1.000
    C479     C        0.01141    0.62292    0.15587    1.000
    C480     C        0.01215    0.64405    0.11770    1.000
    C481     C        0.01227    0.68388    0.10315    1.000
    C482     C        0.01193    0.70193    0.12754    1.000
    C483     C        0.01170    0.58000    0.17080    1.000
    C484     C        0.01115    0.70635    0.06250    1.000
    C485     C        0.39845    0.66395    0.26600    1.000
    C486     C        0.41634    0.69196    0.27600    1.000
    C487     C        0.39297    0.70047    0.30706    1.000
    C488     C        0.41076    0.72842    0.31562    1.000
    C489     C        0.38705    0.73775    0.34760    1.000
    C490     C        0.34692    0.67681    0.33367    1.000
    C491     C        0.32085    0.69055    0.32020    1.000
    C492     C        0.27879    0.66729    0.34413    1.000
    C493     C        0.26175    0.62985    0.38230    1.000
    C494     C        0.28703    0.61543    0.39685    1.000
    C495     C        0.32947    0.63947    0.37246    1.000
    C496     C        0.25080    0.68250    0.32920    1.000
    C497     C        0.26885    0.57365    0.43750    1.000
    C498     C        0.33555    0.57005    0.26600    1.000
    C499     C        0.30766    0.53204    0.27600    1.000
    C500     C        0.29997    0.99247    0.30706    1.000
    C501     C        0.27362    0.95596    0.31562    1.000
    C502     C        0.26535    0.91465    0.34760    1.000
    C503     C        0.31942    0.98952    0.33367    1.000
    C504     C        0.35895    0.98925    0.32020    1.000
    C505     C        0.37709    0.98859    0.34413    1.000
    C506     C        0.35595    0.98785    0.38230    1.000
    C507     C        0.31612    0.98773    0.39685    1.000
    C508     C        0.29807    0.98807    0.37246    1.000
    C509     C        0.42000    0.98830    0.32920    1.000
    C510     C        0.29365    0.98885    0.43750    1.000
    C511     C        0.16395    0.89845    0.26600    1.000
    C512     C        0.19196    0.91634    0.27600    1.000
    C513     C        0.20047    0.89297    0.30706    1.000
    C514     C        0.22842    0.91076    0.31562    1.000
    C515     C        0.23775    0.88705    0.34760    1.000
    C516     C        0.17682    0.84692    0.33367    1.000
    C517     C        0.19055    0.82085    0.32020    1.000
    C518     C        0.16729    0.77879    0.34413    1.000
    C519     C        0.12985    0.76175    0.38230    1.000
    C520     C        0.11543    0.78703    0.39685    1.000
    C521     C        0.13947    0.82947    0.37246    1.000
    C522     C        0.18250    0.75080    0.32920    1.000
    C523     C        0.07365    0.76885    0.43750    1.000
    C524     C        0.07005    0.83555    0.26600    1.000
    C525     C        0.03204    0.80766    0.27600    1.000
    C526     C        0.49247    0.79997    0.30706    1.000
    C527     C        0.45596    0.77362    0.31562    1.000
    C528     C        0.41465    0.76535    0.34760    1.000
    C529     C        0.48952    0.81942    0.33367    1.000
    C530     C        0.48925    0.85895    0.32020    1.000
    C531     C        0.48859    0.87708    0.34413    1.000
    C532     C        0.48785    0.85595    0.38230    1.000
    C533     C        0.48773    0.81613    0.39685    1.000
    C534     C        0.48807    0.79807    0.37246    1.000
    C535     C        0.48830    0.92000    0.32920    1.000
    C536     C        0.48885    0.79365    0.43750    1.000
    C537     C        0.10155    0.83605    0.23400    1.000
    C538     C        0.08366    0.80804    0.22400    1.000
    C539     C        0.10703    0.79953    0.19294    1.000
    C540     C        0.08924    0.77158    0.18438    1.000
    C541     C        0.11295    0.76225    0.15240    1.000
    C542     C        0.15309    0.82319    0.16633    1.000
    C543     C        0.17915    0.80945    0.17980    1.000
    C544     C        0.22122    0.83272    0.15587    1.000
    C545     C        0.23825    0.87015    0.11770    1.000
    C546     C        0.21298    0.88458    0.10315    1.000
    C547     C        0.17053    0.86053    0.12754    1.000
    C548     C        0.24920    0.81750    0.17080    1.000
    C549     C        0.23115    0.92635    0.06250    1.000
    C550     C        0.16445    0.92995    0.23400    1.000
    C551     C        0.19234    0.96796    0.22400    1.000
    C552     C        0.20003    0.50753    0.19294    1.000
    C553     C        0.22638    0.54404    0.18438    1.000
    C554     C        0.23465    0.58535    0.15240    1.000
    C555     C        0.18059    0.51049    0.16633    1.000
    C556     C        0.14105    0.51075    0.17980    1.000
    C557     C        0.12292    0.51141    0.15587    1.000
    C558     C        0.14405    0.51215    0.11770    1.000
    C559     C        0.18388    0.51227    0.10315    1.000
    C560     C        0.20193    0.51193    0.12754    1.000
    C561     C        0.08000    0.51170    0.17080    1.000
    C562     C        0.20635    0.51115    0.06250    1.000
    N563     N        0.24918    0.54738    0.20344    1.000
    N564     N        0.04738    0.74918    0.20344    1.000
    N565     N        0.45262    0.75082    0.29656    1.000
    N566     N        0.25082    0.95262    0.29656    1.000
    N567     N        0.29120    0.54120    0.25000    1.000
    N568     N        0.45880    0.70880    0.25000    1.000
    N569     N        0.20880    0.95880    0.25000    1.000
    N570     N        0.04120    0.79120    0.25000    1.000
    Cl571    Cl       0.04150    0.85295    0.00000    1.000
    Cl572    Cl       0.45850    0.64705    0.00000    1.000
    Cl573    Cl       0.14705    0.95850    0.00000    1.000
    Cl574    Cl       0.35295    0.54150    0.00000    1.000
    Cl575    Cl       0.00158    0.69219    0.30623    1.000
    Cl576    Cl       0.49842    0.80782    0.19377    1.000
    O577     O        0.28492    0.73250    0.20629    1.000
    O578     O        0.33965    0.78705    0.14700    1.000
    O579     O        0.45033    0.76733    0.04715    1.000
    O580     O        0.43381    0.70780    0.04809    1.000
    O581     O        0.00879    0.56122    0.20629    1.000
    O582     O        0.01335    0.56595    0.14700    1.000
    O583     O        0.00252    0.68553    0.04715    1.000
    O584     O        0.01810    0.74411    0.04809    1.000
    O585     O        0.26751    0.71509    0.29371    1.000
    O586     O        0.21295    0.66035    0.35300    1.000
    O587     O        0.23268    0.54967    0.45285    1.000
    O588     O        0.29220    0.56619    0.45191    1.000
    O589     O        0.43879    0.99121    0.29371    1.000
    O590     O        0.43405    0.98665    0.35300    1.000
    O591     O        0.31448    0.99748    0.45285    1.000
    O592     O        0.25589    0.98190    0.45191    1.000
    O593     O        0.21509    0.76751    0.29371    1.000
    O594     O        0.16035    0.71295    0.35300    1.000
    O595     O        0.04968    0.73267    0.45285    1.000
    O596     O        0.06619    0.79220    0.45191    1.000
    O597     O        0.49121    0.93879    0.29371    1.000
    O598     O        0.48665    0.93405    0.35300    1.000
    O599     O        0.49748    0.81448    0.45285    1.000
    O600     O        0.48190    0.75589    0.45191    1.000
    O601     O        0.23250    0.78492    0.20629    1.000
    O602     O        0.28705    0.83965    0.14700    1.000
    O603     O        0.26733    0.95033    0.04715    1.000
    O604     O        0.20780    0.93381    0.04809    1.000
    O605     O        0.06122    0.50880    0.20629    1.000
    O606     O        0.06595    0.51335    0.14700    1.000
    O607     O        0.18553    0.50253    0.04715    1.000
    O608     O        0.24411    0.51810    0.04809    1.000
    Mn609    Mn       0.75000    0.50000    0.25000    1.000
    Mn610    Mn       0.50000    0.75000    0.25000    1.000
    Mn611    Mn       0.75000    0.75000    0.25000    1.000
    Mn612    Mn       0.50000    0.50000    0.25000    1.000
    Mn613    Mn       0.84170    0.84170    0.14617    1.000
    Mn614    Mn       0.51213    0.51213    0.14617    1.000
    Mn615    Mn       0.65830    0.65830    0.35383    1.000
    Mn616    Mn       0.98787    0.98787    0.35383    1.000
    Mn617    Mn       0.51459    0.79276    0.00000    1.000
    Mn618    Mn       0.98542    0.70725    0.00000    1.000
    Mn619    Mn       0.70725    0.98542    0.00000    1.000
    Mn620    Mn       0.79276    0.51458    0.00000    1.000
    H621     H        0.85165    0.62985    0.22070    1.000
    H622     H        0.77320    0.64190    0.13500    1.000
    H623     H        0.78410    0.66780    0.20550    1.000
    H624     H        0.88605    0.76695    0.10140    1.000
    H625     H        0.86965    0.65345    0.11780    1.000
    H626     H        0.92765    0.64945    0.22070    1.000
    H627     H        0.59180    0.72310    0.13500    1.000
    H628     H        0.51040    0.62670    0.20550    1.000
    H629     H        0.51255    0.63165    0.10140    1.000
    H630     H        0.51255    0.72875    0.11780    1.000
    H631     H        0.87015    0.64835    0.27930    1.000
    H632     H        0.85810    0.72680    0.36500    1.000
    H633     H        0.83220    0.71590    0.29450    1.000
    H634     H        0.73305    0.61395    0.39860    1.000
    H635     H        0.84655    0.63035    0.38220    1.000
    H636     H        0.85055    0.57235    0.27930    1.000
    H637     H        0.77690    0.90820    0.36500    1.000
    H638     H        0.87330    0.98960    0.29450    1.000
    H639     H        0.86835    0.98745    0.39860    1.000
    H640     H        0.77125    0.98745    0.38220    1.000
    H641     H        0.64835    0.87015    0.27930    1.000
    H642     H        0.72680    0.85810    0.36500    1.000
    H643     H        0.71590    0.83220    0.29450    1.000
    H644     H        0.61395    0.73305    0.39860    1.000
    H645     H        0.63035    0.84655    0.38220    1.000
    H646     H        0.57235    0.85055    0.27930    1.000
    H647     H        0.90820    0.77690    0.36500    1.000
    H648     H        0.98960    0.87330    0.29450    1.000
    H649     H        0.98745    0.86835    0.39860    1.000
    H650     H        0.98745    0.77125    0.38220    1.000
    H651     H        0.62985    0.85165    0.22070    1.000
    H652     H        0.64190    0.77320    0.13500    1.000
    H653     H        0.66780    0.78410    0.20550    1.000
    H654     H        0.76695    0.88605    0.10140    1.000
    H655     H        0.65345    0.86965    0.11780    1.000
    H656     H        0.64945    0.92765    0.22070    1.000
    H657     H        0.72310    0.59180    0.13500    1.000
    H658     H        0.62670    0.51040    0.20550    1.000
    H659     H        0.63165    0.51255    0.10140    1.000
    H660     H        0.72875    0.51255    0.11780    1.000
    C661     C        0.83605    0.60155    0.23400    1.000
    C662     C        0.80804    0.58366    0.22400    1.000
    C663     C        0.79953    0.60703    0.19294    1.000
    C664     C        0.77158    0.58924    0.18438    1.000
    C665     C        0.76225    0.61295    0.15240    1.000
    C666     C        0.82319    0.65308    0.16633    1.000
    C667     C        0.80945    0.67915    0.17980    1.000
    C668     C        0.83272    0.72122    0.15587    1.000
    C669     C        0.87015    0.73825    0.11770    1.000
    C670     C        0.88458    0.71298    0.10315    1.000
    C671     C        0.86053    0.67053    0.12754    1.000
    C672     C        0.81750    0.74920    0.17080    1.000
    C673     C        0.92635    0.73115    0.06250    1.000
    C674     C        0.92995    0.66445    0.23400    1.000
    C675     C        0.96796    0.69234    0.22400    1.000
    C676     C        0.50753    0.70003    0.19294    1.000
    C677     C        0.54404    0.72638    0.18438    1.000
    C678     C        0.58535    0.73465    0.15240    1.000
    C679     C        0.51049    0.68059    0.16633    1.000
    C680     C        0.51075    0.64105    0.17980    1.000
    C681     C        0.51142    0.62292    0.15587    1.000
    C682     C        0.51215    0.64405    0.11770    1.000
    C683     C        0.51228    0.68388    0.10315    1.000
    C684     C        0.51193    0.70193    0.12754    1.000
    C685     C        0.51170    0.58000    0.17080    1.000
    C686     C        0.51115    0.70635    0.06250    1.000
    C687     C        0.89845    0.66395    0.26600    1.000
    C688     C        0.91634    0.69196    0.27600    1.000
    C689     C        0.89297    0.70047    0.30706    1.000
    C690     C        0.91076    0.72842    0.31562    1.000
    C691     C        0.88705    0.73775    0.34760    1.000
    C692     C        0.84692    0.67681    0.33367    1.000
    C693     C        0.82085    0.69055    0.32020    1.000
    C694     C        0.77879    0.66729    0.34413    1.000
    C695     C        0.76175    0.62985    0.38230    1.000
    C696     C        0.78703    0.61543    0.39685    1.000
    C697     C        0.82947    0.63947    0.37246    1.000
    C698     C        0.75080    0.68250    0.32920    1.000
    C699     C        0.76885    0.57365    0.43750    1.000
    C700     C        0.83555    0.57005    0.26600    1.000
    C701     C        0.80766    0.53204    0.27600    1.000
    C702     C        0.79997    0.99247    0.30706    1.000
    C703     C        0.77362    0.95596    0.31562    1.000
    C704     C        0.76535    0.91465    0.34760    1.000
    C705     C        0.81942    0.98952    0.33367    1.000
    C706     C        0.85895    0.98925    0.32020    1.000
    C707     C        0.87709    0.98859    0.34413    1.000
    C708     C        0.85595    0.98785    0.38230    1.000
    C709     C        0.81613    0.98773    0.39685    1.000
    C710     C        0.79807    0.98807    0.37246    1.000
    C711     C        0.92000    0.98830    0.32920    1.000
    C712     C        0.79365    0.98885    0.43750    1.000
    C713     C        0.66395    0.89845    0.26600    1.000
    C714     C        0.69196    0.91634    0.27600    1.000
    C715     C        0.70047    0.89297    0.30706    1.000
    C716     C        0.72842    0.91076    0.31562    1.000
    C717     C        0.73775    0.88705    0.34760    1.000
    C718     C        0.67682    0.84692    0.33367    1.000
    C719     C        0.69055    0.82085    0.32020    1.000
    C720     C        0.66729    0.77879    0.34413    1.000
    C721     C        0.62985    0.76175    0.38230    1.000
    C722     C        0.61543    0.78703    0.39685    1.000
    C723     C        0.63947    0.82947    0.37246    1.000
    C724     C        0.68250    0.75080    0.32920    1.000
    C725     C        0.57365    0.76885    0.43750    1.000
    C726     C        0.57005    0.83555    0.26600    1.000
    C727     C        0.53204    0.80766    0.27600    1.000
    C728     C        0.99247    0.79997    0.30706    1.000
    C729     C        0.95596    0.77362    0.31562    1.000
    C730     C        0.91465    0.76535    0.34760    1.000
    C731     C        0.98952    0.81942    0.33367    1.000
    C732     C        0.98925    0.85895    0.32020    1.000
    C733     C        0.98859    0.87708    0.34413    1.000
    C734     C        0.98785    0.85595    0.38230    1.000
    C735     C        0.98773    0.81613    0.39685    1.000
    C736     C        0.98807    0.79807    0.37246    1.000
    C737     C        0.98830    0.92000    0.32920    1.000
    C738     C        0.98885    0.79365    0.43750    1.000
    C739     C        0.60155    0.83605    0.23400    1.000
    C740     C        0.58366    0.80804    0.22400    1.000
    C741     C        0.60703    0.79953    0.19294    1.000
    C742     C        0.58924    0.77158    0.18438    1.000
    C743     C        0.61295    0.76225    0.15240    1.000
    C744     C        0.65309    0.82319    0.16633    1.000
    C745     C        0.67915    0.80945    0.17980    1.000
    C746     C        0.72122    0.83272    0.15587    1.000
    C747     C        0.73825    0.87015    0.11770    1.000
    C748     C        0.71298    0.88458    0.10315    1.000
    C749     C        0.67053    0.86053    0.12754    1.000
    C750     C        0.74920    0.81750    0.17080    1.000
    C751     C        0.73115    0.92635    0.06250    1.000
    C752     C        0.66445    0.92995    0.23400    1.000
    C753     C        0.69234    0.96796    0.22400    1.000
    C754     C        0.70003    0.50753    0.19294    1.000
    C755     C        0.72638    0.54404    0.18438    1.000
    C756     C        0.73465    0.58535    0.15240    1.000
    C757     C        0.68059    0.51049    0.16633    1.000
    C758     C        0.64105    0.51075    0.17980    1.000
    C759     C        0.62292    0.51141    0.15587    1.000
    C760     C        0.64405    0.51215    0.11770    1.000
    C761     C        0.68388    0.51227    0.10315    1.000
    C762     C        0.70193    0.51193    0.12754    1.000
    C763     C        0.58000    0.51170    0.17080    1.000
    C764     C        0.70635    0.51115    0.06250    1.000
    N765     N        0.74918    0.54738    0.20344    1.000
    N766     N        0.54738    0.74918    0.20344    1.000
    N767     N        0.95262    0.75082    0.29656    1.000
    N768     N        0.75082    0.95262    0.29656    1.000
    N769     N        0.79120    0.54120    0.25000    1.000
    N770     N        0.95880    0.70880    0.25000    1.000
    N771     N        0.70880    0.95880    0.25000    1.000
    N772     N        0.54120    0.79120    0.25000    1.000
    Cl773    Cl       0.54150    0.85295    0.00000    1.000
    Cl774    Cl       0.95850    0.64705    0.00000    1.000
    Cl775    Cl       0.64705    0.95850    0.00000    1.000
    Cl776    Cl       0.85295    0.54150    0.00000    1.000
    Cl777    Cl       0.80782    0.99842    0.19377    1.000
    O778     O        0.78492    0.73250    0.20629    1.000
    O779     O        0.83965    0.78705    0.14700    1.000
    O780     O        0.95033    0.76733    0.04715    1.000
    O781     O        0.93381    0.70780    0.04809    1.000
    O782     O        0.50879    0.56122    0.20629    1.000
    O783     O        0.51335    0.56595    0.14700    1.000
    O784     O        0.50253    0.68553    0.04715    1.000
    O785     O        0.51810    0.74411    0.04809    1.000
    O786     O        0.76751    0.71509    0.29371    1.000
    O787     O        0.71295    0.66035    0.35300    1.000
    O788     O        0.73268    0.54967    0.45285    1.000
    O789     O        0.79220    0.56619    0.45191    1.000
    O790     O        0.93879    0.99121    0.29371    1.000
    O791     O        0.93405    0.98665    0.35300    1.000
    O792     O        0.81448    0.99748    0.45285    1.000
    O793     O        0.75589    0.98190    0.45191    1.000
    O794     O        0.71509    0.76751    0.29371    1.000
    O795     O        0.66035    0.71295    0.35300    1.000
    O796     O        0.54968    0.73268    0.45285    1.000
    O797     O        0.56619    0.79220    0.45191    1.000
    O798     O        0.99121    0.93879    0.29371    1.000
    O799     O        0.98665    0.93405    0.35300    1.000
    O800     O        0.99748    0.81448    0.45285    1.000
    O801     O        0.98190    0.75589    0.45191    1.000
    O802     O        0.73250    0.78492    0.20629    1.000
    O803     O        0.78705    0.83965    0.14700    1.000
    O804     O        0.76733    0.95033    0.04715    1.000
    O805     O        0.70780    0.93381    0.04809    1.000
    O806     O        0.56122    0.50880    0.20629    1.000
    O807     O        0.56595    0.51335    0.14700    1.000
    O808     O        0.68553    0.50253    0.04715    1.000
    O809     O        0.74411    0.51810    0.04809    1.000
    Mn810    Mn       0.25000    0.00000    0.75000    1.000
    Mn811    Mn       0.00000    0.25000    0.75000    1.000
    Mn812    Mn       0.25000    0.25000    0.75000    1.000
    Mn813    Mn       0.00000    0.00000    0.75000    1.000
    Mn814    Mn       0.34170    0.34170    0.64617    1.000
    Mn815    Mn       0.01213    0.01213    0.64617    1.000
    Mn816    Mn       0.15830    0.15830    0.85383    1.000
    Mn817    Mn       0.48787    0.48787    0.85383    1.000
    Mn818    Mn       0.01458    0.29276    0.50000    1.000
    Mn819    Mn       0.48542    0.20725    0.50000    1.000
    Mn820    Mn       0.20725    0.48542    0.50000    1.000
    Mn821    Mn       0.29276    0.01458    0.50000    1.000
    H822     H        0.35165    0.12985    0.72070    1.000
    H823     H        0.27320    0.14190    0.63500    1.000
    H824     H        0.28410    0.16780    0.70550    1.000
    H825     H        0.38605    0.26695    0.60140    1.000
    H826     H        0.36965    0.15345    0.61780    1.000
    H827     H        0.42765    0.14945    0.72070    1.000
    H828     H        0.09180    0.22310    0.63500    1.000
    H829     H        0.01040    0.12670    0.70550    1.000
    H830     H        0.01255    0.13165    0.60140    1.000
    H831     H        0.01255    0.22875    0.61780    1.000
    H832     H        0.37015    0.14835    0.77930    1.000
    H833     H        0.35810    0.22680    0.86500    1.000
    H834     H        0.33220    0.21590    0.79450    1.000
    H835     H        0.23305    0.11395    0.89860    1.000
    H836     H        0.34655    0.13035    0.88220    1.000
    H837     H        0.35055    0.07235    0.77930    1.000
    H838     H        0.27690    0.40820    0.86500    1.000
    H839     H        0.37330    0.48960    0.79450    1.000
    H840     H        0.36835    0.48745    0.89860    1.000
    H841     H        0.27125    0.48745    0.88220    1.000
    H842     H        0.14835    0.37015    0.77930    1.000
    H843     H        0.22680    0.35810    0.86500    1.000
    H844     H        0.21590    0.33220    0.79450    1.000
    H845     H        0.11395    0.23305    0.89860    1.000
    H846     H        0.13035    0.34655    0.88220    1.000
    H847     H        0.07235    0.35055    0.77930    1.000
    H848     H        0.40820    0.27690    0.86500    1.000
    H849     H        0.48960    0.37330    0.79450    1.000
    H850     H        0.48745    0.36835    0.89860    1.000
    H851     H        0.48745    0.27125    0.88220    1.000
    H852     H        0.12985    0.35165    0.72070    1.000
    H853     H        0.14190    0.27320    0.63500    1.000
    H854     H        0.16780    0.28410    0.70550    1.000
    H855     H        0.26695    0.38605    0.60140    1.000
    H856     H        0.15345    0.36965    0.61780    1.000
    H857     H        0.14945    0.42765    0.72070    1.000
    H858     H        0.22310    0.09180    0.63500    1.000
    H859     H        0.12670    0.01040    0.70550    1.000
    H860     H        0.13165    0.01255    0.60140    1.000
    H861     H        0.22875    0.01255    0.61780    1.000
    C862     C        0.33605    0.10155    0.73400    1.000
    C863     C        0.30804    0.08366    0.72400    1.000
    C864     C        0.29953    0.10703    0.69294    1.000
    C865     C        0.27158    0.08924    0.68438    1.000
    C866     C        0.26225    0.11295    0.65240    1.000
    C867     C        0.32319    0.15308    0.66633    1.000
    C868     C        0.30945    0.17915    0.67980    1.000
    C869     C        0.33272    0.22122    0.65587    1.000
    C870     C        0.37015    0.23825    0.61770    1.000
    C871     C        0.38458    0.21298    0.60315    1.000
    C872     C        0.36053    0.17053    0.62754    1.000
    C873     C        0.31750    0.24920    0.67080    1.000
    C874     C        0.42635    0.23115    0.56250    1.000
    C875     C        0.42995    0.16445    0.73400    1.000
    C876     C        0.46796    0.19234    0.72400    1.000
    C877     C        0.00753    0.20003    0.69294    1.000
    C878     C        0.04404    0.22638    0.68438    1.000
    C879     C        0.08535    0.23465    0.65240    1.000
    C880     C        0.01048    0.18059    0.66633    1.000
    C881     C        0.01075    0.14105    0.67980    1.000
    C882     C        0.01141    0.12292    0.65587    1.000
    C883     C        0.01215    0.14405    0.61770    1.000
    C884     C        0.01227    0.18388    0.60315    1.000
    C885     C        0.01193    0.20193    0.62754    1.000
    C886     C        0.01170    0.08000    0.67080    1.000
    C887     C        0.01115    0.20635    0.56250    1.000
    C888     C        0.39845    0.16395    0.76600    1.000
    C889     C        0.41634    0.19196    0.77600    1.000
    C890     C        0.39297    0.20047    0.80706    1.000
    C891     C        0.41076    0.22842    0.81562    1.000
    C892     C        0.38705    0.23775    0.84760    1.000
    C893     C        0.34692    0.17681    0.83367    1.000
    C894     C        0.32085    0.19055    0.82020    1.000
    C895     C        0.27879    0.16729    0.84413    1.000
    C896     C        0.26175    0.12985    0.88230    1.000
    C897     C        0.28703    0.11543    0.89685    1.000
    C898     C        0.32947    0.13947    0.87246    1.000
    C899     C        0.25080    0.18250    0.82920    1.000
    C900     C        0.26885    0.07365    0.93750    1.000
    C901     C        0.33555    0.07005    0.76600    1.000
    C902     C        0.30766    0.03204    0.77600    1.000
    C903     C        0.29997    0.49247    0.80706    1.000
    C904     C        0.27362    0.45596    0.81562    1.000
    C905     C        0.26535    0.41465    0.84760    1.000
    C906     C        0.31942    0.48952    0.83367    1.000
    C907     C        0.35895    0.48925    0.82020    1.000
    C908     C        0.37709    0.48859    0.84413    1.000
    C909     C        0.35595    0.48785    0.88230    1.000
    C910     C        0.31612    0.48773    0.89685    1.000
    C911     C        0.29807    0.48807    0.87246    1.000
    C912     C        0.42000    0.48830    0.82920    1.000
    C913     C        0.29365    0.48885    0.93750    1.000
    C914     C        0.16395    0.39845    0.76600    1.000
    C915     C        0.19196    0.41634    0.77600    1.000
    C916     C        0.20047    0.39297    0.80706    1.000
    C917     C        0.22842    0.41076    0.81562    1.000
    C918     C        0.23775    0.38705    0.84760    1.000
    C919     C        0.17682    0.34692    0.83367    1.000
    C920     C        0.19055    0.32085    0.82020    1.000
    C921     C        0.16729    0.27879    0.84413    1.000
    C922     C        0.12985    0.26175    0.88230    1.000
    C923     C        0.11543    0.28703    0.89685    1.000
    C924     C        0.13947    0.32947    0.87246    1.000
    C925     C        0.18250    0.25080    0.82920    1.000
    C926     C        0.07365    0.26885    0.93750    1.000
    C927     C        0.07005    0.33555    0.76600    1.000
    C928     C        0.03204    0.30766    0.77600    1.000
    C929     C        0.49247    0.29997    0.80706    1.000
    C930     C        0.45596    0.27362    0.81562    1.000
    C931     C        0.41465    0.26535    0.84760    1.000
    C932     C        0.48952    0.31942    0.83367    1.000
    C933     C        0.48925    0.35895    0.82020    1.000
    C934     C        0.48859    0.37708    0.84413    1.000
    C935     C        0.48785    0.35595    0.88230    1.000
    C936     C        0.48773    0.31613    0.89685    1.000
    C937     C        0.48807    0.29807    0.87246    1.000
    C938     C        0.48830    0.42000    0.82920    1.000
    C939     C        0.48885    0.29365    0.93750    1.000
    C940     C        0.10155    0.33605    0.73400    1.000
    C941     C        0.08366    0.30804    0.72400    1.000
    C942     C        0.10703    0.29953    0.69294    1.000
    C943     C        0.08924    0.27158    0.68438    1.000
    C944     C        0.11295    0.26225    0.65240    1.000
    C945     C        0.15309    0.32319    0.66633    1.000
    C946     C        0.17915    0.30945    0.67980    1.000
    C947     C        0.22122    0.33271    0.65587    1.000
    C948     C        0.23825    0.37015    0.61770    1.000
    C949     C        0.21298    0.38458    0.60315    1.000
    C950     C        0.17053    0.36053    0.62754    1.000
    C951     C        0.24920    0.31750    0.67080    1.000
    C952     C        0.23115    0.42635    0.56250    1.000
    C953     C        0.16445    0.42995    0.73400    1.000
    C954     C        0.19234    0.46796    0.72400    1.000
    C955     C        0.20003    0.00753    0.69294    1.000
    C956     C        0.22638    0.04404    0.68438    1.000
    C957     C        0.23465    0.08535    0.65240    1.000
    C958     C        0.18059    0.01049    0.66633    1.000
    C959     C        0.14105    0.01075    0.67980    1.000
    C960     C        0.12292    0.01141    0.65587    1.000
    C961     C        0.14405    0.01215    0.61770    1.000
    C962     C        0.18388    0.01227    0.60315    1.000
    C963     C        0.20193    0.01193    0.62754    1.000
    C964     C        0.08000    0.01170    0.67080    1.000
    C965     C        0.20635    0.01115    0.56250    1.000
    N966     N        0.24918    0.04738    0.70344    1.000
    N967     N        0.04738    0.24918    0.70344    1.000
    N968     N        0.45262    0.25082    0.79656    1.000
    N969     N        0.25082    0.45262    0.79656    1.000
    N970     N        0.29120    0.04120    0.75000    1.000
    N971     N        0.45880    0.20880    0.75000    1.000
    N972     N        0.20880    0.45880    0.75000    1.000
    N973     N        0.04120    0.29120    0.75000    1.000
    Cl974    Cl       0.04150    0.35295    0.50000    1.000
    Cl975    Cl       0.45850    0.14705    0.50000    1.000
    Cl976    Cl       0.14705    0.45850    0.50000    1.000
    Cl977    Cl       0.35295    0.04150    0.50000    1.000
    O978     O        0.28492    0.23250    0.70629    1.000
    O979     O        0.33965    0.28705    0.64700    1.000
    O980     O        0.45033    0.26733    0.54715    1.000
    O981     O        0.43381    0.20780    0.54809    1.000
    O982     O        0.00879    0.06122    0.70629    1.000
    O983     O        0.01335    0.06595    0.64700    1.000
    O984     O        0.00252    0.18553    0.54715    1.000
    O985     O        0.01810    0.24411    0.54809    1.000
    O986     O        0.26751    0.21509    0.79371    1.000
    O987     O        0.21295    0.16035    0.85300    1.000
    O988     O        0.23268    0.04967    0.95285    1.000
    O989     O        0.29220    0.06619    0.95191    1.000
    O990     O        0.43879    0.49121    0.79371    1.000
    O991     O        0.43405    0.48665    0.85300    1.000
    O992     O        0.31448    0.49748    0.95285    1.000
    O993     O        0.25589    0.48190    0.95191    1.000
    O994     O        0.21509    0.26751    0.79371    1.000
    O995     O        0.16035    0.21295    0.85300    1.000
    O996     O        0.04968    0.23267    0.95285    1.000
    O997     O        0.06619    0.29220    0.95191    1.000
    O998     O        0.49121    0.43879    0.79371    1.000
    O999     O        0.48665    0.43405    0.85300    1.000
    O1000    O        0.49748    0.31448    0.95285    1.000
    O1001    O        0.48190    0.25589    0.95191    1.000
    O1002    O        0.23250    0.28492    0.70629    1.000
    O1003    O        0.28705    0.33965    0.64700    1.000
    O1004    O        0.26733    0.45033    0.54715    1.000
    O1005    O        0.20780    0.43381    0.54809    1.000
    O1006    O        0.06122    0.00880    0.70629    1.000
    O1007    O        0.06595    0.01335    0.64700    1.000
    O1008    O        0.18553    0.00252    0.54715    1.000
    O1009    O        0.24411    0.01810    0.54809    1.000
    Mn1010   Mn       0.75000    0.00000    0.75000    1.000
    Mn1011   Mn       0.50000    0.25000    0.75000    1.000
    Mn1012   Mn       0.75000    0.25000    0.75000    1.000
    Mn1013   Mn       0.50000    0.00000    0.75000    1.000
    Mn1014   Mn       0.84170    0.34170    0.64617    1.000
    Mn1015   Mn       0.51213    0.01213    0.64617    1.000
    Mn1016   Mn       0.65830    0.15830    0.85383    1.000
    Mn1017   Mn       0.98787    0.48787    0.85383    1.000
    Mn1018   Mn       0.51459    0.29276    0.50000    1.000
    Mn1019   Mn       0.98542    0.20725    0.50000    1.000
    Mn1020   Mn       0.70725    0.48542    0.50000    1.000
    Mn1021   Mn       0.79276    0.01458    0.50000    1.000
    H1022    H        0.85165    0.12985    0.72070    1.000
    H1023    H        0.77320    0.14190    0.63500    1.000
    H1024    H        0.78410    0.16780    0.70550    1.000
    H1025    H        0.88605    0.26695    0.60140    1.000
    H1026    H        0.86965    0.15345    0.61780    1.000
    H1027    H        0.92765    0.14945    0.72070    1.000
    H1028    H        0.59180    0.22310    0.63500    1.000
    H1029    H        0.51040    0.12670    0.70550    1.000
    H1030    H        0.51255    0.13165    0.60140    1.000
    H1031    H        0.51255    0.22875    0.61780    1.000
    H1032    H        0.87015    0.14835    0.77930    1.000
    H1033    H        0.85810    0.22680    0.86500    1.000
    H1034    H        0.83220    0.21590    0.79450    1.000
    H1035    H        0.73305    0.11395    0.89860    1.000
    H1036    H        0.84655    0.13035    0.88220    1.000
    H1037    H        0.85055    0.07235    0.77930    1.000
    H1038    H        0.77690    0.40820    0.86500    1.000
    H1039    H        0.87330    0.48960    0.79450    1.000
    H1040    H        0.86835    0.48745    0.89860    1.000
    H1041    H        0.77125    0.48745    0.88220    1.000
    H1042    H        0.64835    0.37015    0.77930    1.000
    H1043    H        0.72680    0.35810    0.86500    1.000
    H1044    H        0.71590    0.33220    0.79450    1.000
    H1045    H        0.61395    0.23305    0.89860    1.000
    H1046    H        0.63035    0.34655    0.88220    1.000
    H1047    H        0.57235    0.35055    0.77930    1.000
    H1048    H        0.90820    0.27690    0.86500    1.000
    H1049    H        0.98960    0.37330    0.79450    1.000
    H1050    H        0.98745    0.36835    0.89860    1.000
    H1051    H        0.98745    0.27125    0.88220    1.000
    H1052    H        0.62985    0.35165    0.72070    1.000
    H1053    H        0.64190    0.27320    0.63500    1.000
    H1054    H        0.66780    0.28410    0.70550    1.000
    H1055    H        0.76695    0.38605    0.60140    1.000
    H1056    H        0.65345    0.36965    0.61780    1.000
    H1057    H        0.64945    0.42765    0.72070    1.000
    H1058    H        0.72310    0.09180    0.63500    1.000
    H1059    H        0.62670    0.01040    0.70550    1.000
    H1060    H        0.63165    0.01255    0.60140    1.000
    H1061    H        0.72875    0.01255    0.61780    1.000
    C1062    C        0.83605    0.10155    0.73400    1.000
    C1063    C        0.80804    0.08366    0.72400    1.000
    C1064    C        0.79953    0.10703    0.69294    1.000
    C1065    C        0.77158    0.08924    0.68438    1.000
    C1066    C        0.76225    0.11295    0.65240    1.000
    C1067    C        0.82319    0.15308    0.66633    1.000
    C1068    C        0.80945    0.17915    0.67980    1.000
    C1069    C        0.83272    0.22122    0.65587    1.000
    C1070    C        0.87015    0.23825    0.61770    1.000
    C1071    C        0.88458    0.21298    0.60315    1.000
    C1072    C        0.86053    0.17053    0.62754    1.000
    C1073    C        0.81750    0.24920    0.67080    1.000
    C1074    C        0.92635    0.23115    0.56250    1.000
    C1075    C        0.92995    0.16445    0.73400    1.000
    C1076    C        0.96796    0.19234    0.72400    1.000
    C1077    C        0.50753    0.20003    0.69294    1.000
    C1078    C        0.54404    0.22638    0.68438    1.000
    C1079    C        0.58535    0.23465    0.65240    1.000
    C1080    C        0.51049    0.18058    0.66633    1.000
    C1081    C        0.51075    0.14105    0.67980    1.000
    C1082    C        0.51142    0.12292    0.65587    1.000
    C1083    C        0.51215    0.14405    0.61770    1.000
    C1084    C        0.51228    0.18388    0.60315    1.000
    C1085    C        0.51193    0.20193    0.62754    1.000
    C1086    C        0.51170    0.08000    0.67080    1.000
    C1087    C        0.51115    0.20635    0.56250    1.000
    C1088    C        0.89845    0.16395    0.76600    1.000
    C1089    C        0.91634    0.19196    0.77600    1.000
    C1090    C        0.89297    0.20047    0.80706    1.000
    C1091    C        0.91076    0.22842    0.81562    1.000
    C1092    C        0.88705    0.23775    0.84760    1.000
    C1093    C        0.84692    0.17681    0.83367    1.000
    C1094    C        0.82085    0.19055    0.82020    1.000
    C1095    C        0.77879    0.16729    0.84413    1.000
    C1096    C        0.76175    0.12985    0.88230    1.000
    C1097    C        0.78703    0.11543    0.89685    1.000
    C1098    C        0.82947    0.13947    0.87246    1.000
    C1099    C        0.75080    0.18250    0.82920    1.000
    C1100    C        0.76885    0.07365    0.93750    1.000
    C1101    C        0.83555    0.07005    0.76600    1.000
    C1102    C        0.80766    0.03204    0.77600    1.000
    C1103    C        0.79997    0.49247    0.80706    1.000
    C1104    C        0.77362    0.45596    0.81562    1.000
    C1105    C        0.76535    0.41465    0.84760    1.000
    C1106    C        0.81942    0.48952    0.83367    1.000
    C1107    C        0.85895    0.48925    0.82020    1.000
    C1108    C        0.87709    0.48859    0.84413    1.000
    C1109    C        0.85595    0.48785    0.88230    1.000
    C1110    C        0.81613    0.48773    0.89685    1.000
    C1111    C        0.79807    0.48807    0.87246    1.000
    C1112    C        0.92000    0.48830    0.82920    1.000
    C1113    C        0.79365    0.48885    0.93750    1.000
    C1114    C        0.66395    0.39845    0.76600    1.000
    C1115    C        0.69196    0.41634    0.77600    1.000
    C1116    C        0.70047    0.39297    0.80706    1.000
    C1117    C        0.72842    0.41076    0.81562    1.000
    C1118    C        0.73775    0.38705    0.84760    1.000
    C1119    C        0.67682    0.34692    0.83367    1.000
    C1120    C        0.69055    0.32085    0.82020    1.000
    C1121    C        0.66729    0.27879    0.84413    1.000
    C1122    C        0.62985    0.26175    0.88230    1.000
    C1123    C        0.61543    0.28703    0.89685    1.000
    C1124    C        0.63947    0.32947    0.87246    1.000
    C1125    C        0.68250    0.25080    0.82920    1.000
    C1126    C        0.57365    0.26885    0.93750    1.000
    C1127    C        0.57005    0.33555    0.76600    1.000
    C1128    C        0.53204    0.30766    0.77600    1.000
    C1129    C        0.99247    0.29997    0.80706    1.000
    C1130    C        0.95596    0.27362    0.81562    1.000
    C1131    C        0.91465    0.26535    0.84760    1.000
    C1132    C        0.98952    0.31942    0.83367    1.000
    C1133    C        0.98925    0.35895    0.82020    1.000
    C1134    C        0.98859    0.37708    0.84413    1.000
    C1135    C        0.98785    0.35595    0.88230    1.000
    C1136    C        0.98773    0.31613    0.89685    1.000
    C1137    C        0.98807    0.29807    0.87246    1.000
    C1138    C        0.98830    0.42000    0.82920    1.000
    C1139    C        0.98885    0.29365    0.93750    1.000
    C1140    C        0.60155    0.33605    0.73400    1.000
    C1141    C        0.58366    0.30804    0.72400    1.000
    C1142    C        0.60703    0.29953    0.69294    1.000
    C1143    C        0.58924    0.27158    0.68438    1.000
    C1144    C        0.61295    0.26225    0.65240    1.000
    C1145    C        0.65309    0.32319    0.66633    1.000
    C1146    C        0.67915    0.30945    0.67980    1.000
    C1147    C        0.72122    0.33271    0.65587    1.000
    C1148    C        0.73825    0.37015    0.61770    1.000
    C1149    C        0.71298    0.38458    0.60315    1.000
    C1150    C        0.67053    0.36053    0.62754    1.000
    C1151    C        0.74920    0.31750    0.67080    1.000
    C1152    C        0.73115    0.42635    0.56250    1.000
    C1153    C        0.66445    0.42995    0.73400    1.000
    C1154    C        0.69234    0.46796    0.72400    1.000
    C1155    C        0.70003    0.00753    0.69294    1.000
    C1156    C        0.72638    0.04404    0.68438    1.000
    C1157    C        0.73465    0.08535    0.65240    1.000
    C1158    C        0.68059    0.01049    0.66633    1.000
    C1159    C        0.64105    0.01075    0.67980    1.000
    C1160    C        0.62292    0.01141    0.65587    1.000
    C1161    C        0.64405    0.01215    0.61770    1.000
    C1162    C        0.68388    0.01227    0.60315    1.000
    C1163    C        0.70193    0.01193    0.62754    1.000
    C1164    C        0.58000    0.01170    0.67080    1.000
    C1165    C        0.70635    0.01115    0.56250    1.000
    N1166    N        0.74918    0.04738    0.70344    1.000
    N1167    N        0.54738    0.24918    0.70344    1.000
    N1168    N        0.95262    0.25082    0.79656    1.000
    N1169    N        0.75082    0.45262    0.79656    1.000
    N1170    N        0.79120    0.04120    0.75000    1.000
    N1171    N        0.95880    0.20880    0.75000    1.000
    N1172    N        0.70880    0.45880    0.75000    1.000
    N1173    N        0.54120    0.29120    0.75000    1.000
    Cl1174   Cl       0.54150    0.35295    0.50000    1.000
    Cl1175   Cl       0.95850    0.14705    0.50000    1.000
    Cl1176   Cl       0.64705    0.45850    0.50000    1.000
    Cl1177   Cl       0.85295    0.04150    0.50000    1.000
    Cl1178   Cl       0.50158    0.19219    0.80623    1.000
    Cl1179   Cl       0.99842    0.30782    0.69377    1.000
    Cl1180   Cl       0.80782    0.49842    0.69377    1.000
    O1181    O        0.78492    0.23250    0.70629    1.000
    O1182    O        0.83965    0.28705    0.64700    1.000
    O1183    O        0.95033    0.26733    0.54715    1.000
    O1184    O        0.93381    0.20780    0.54809    1.000
    O1185    O        0.50879    0.06121    0.70629    1.000
    O1186    O        0.51335    0.06595    0.64700    1.000
    O1187    O        0.50253    0.18553    0.54715    1.000
    O1188    O        0.51810    0.24411    0.54809    1.000
    O1189    O        0.76751    0.21509    0.79371    1.000
    O1190    O        0.71295    0.16035    0.85300    1.000
    O1191    O        0.73268    0.04967    0.95285    1.000
    O1192    O        0.79220    0.06619    0.95191    1.000
    O1193    O        0.93879    0.49121    0.79371    1.000
    O1194    O        0.93405    0.48665    0.85300    1.000
    O1195    O        0.81448    0.49748    0.95285    1.000
    O1196    O        0.75589    0.48190    0.95191    1.000
    O1197    O        0.71509    0.26751    0.79371    1.000
    O1198    O        0.66035    0.21295    0.85300    1.000
    O1199    O        0.54968    0.23267    0.95285    1.000
    O1200    O        0.56619    0.29220    0.95191    1.000
    O1201    O        0.99121    0.43879    0.79371    1.000
    O1202    O        0.98665    0.43405    0.85300    1.000
    O1203    O        0.99748    0.31447    0.95285    1.000
    O1204    O        0.98190    0.25589    0.95191    1.000
    O1205    O        0.73250    0.28492    0.70629    1.000
    O1206    O        0.78705    0.33965    0.64700    1.000
    O1207    O        0.76733    0.45033    0.54715    1.000
    O1208    O        0.70780    0.43381    0.54809    1.000
    O1209    O        0.56122    0.00880    0.70629    1.000
    O1210    O        0.56595    0.01335    0.64700    1.000
    O1211    O        0.68553    0.00252    0.54715    1.000
    O1212    O        0.74411    0.01810    0.54809    1.000
    Mn1213   Mn       0.25000    0.50000    0.75000    1.000
    Mn1214   Mn       0.00000    0.75000    0.75000    1.000
    Mn1215   Mn       0.25000    0.75000    0.75000    1.000
    Mn1216   Mn       0.00000    0.50000    0.75000    1.000
    Mn1217   Mn       0.34170    0.84170    0.64617    1.000
    Mn1218   Mn       0.01213    0.51213    0.64617    1.000
    Mn1219   Mn       0.15830    0.65830    0.85383    1.000
    Mn1220   Mn       0.48787    0.98787    0.85383    1.000
    Mn1221   Mn       0.01458    0.79276    0.50000    1.000
    Mn1222   Mn       0.48542    0.70725    0.50000    1.000
    Mn1223   Mn       0.20725    0.98542    0.50000    1.000
    Mn1224   Mn       0.29276    0.51458    0.50000    1.000
    H1225    H        0.35165    0.62985    0.72070    1.000
    H1226    H        0.27320    0.64190    0.63500    1.000
    H1227    H        0.28410    0.66780    0.70550    1.000
    H1228    H        0.38605    0.76695    0.60140    1.000
    H1229    H        0.36965    0.65345    0.61780    1.000
    H1230    H        0.42765    0.64945    0.72070    1.000
    H1231    H        0.09180    0.72310    0.63500    1.000
    H1232    H        0.01040    0.62670    0.70550    1.000
    H1233    H        0.01255    0.63165    0.60140    1.000
    H1234    H        0.01255    0.72875    0.61780    1.000
    H1235    H        0.37015    0.64835    0.77930    1.000
    H1236    H        0.35810    0.72680    0.86500    1.000
    H1237    H        0.33220    0.71590    0.79450    1.000
    H1238    H        0.23305    0.61395    0.89860    1.000
    H1239    H        0.34655    0.63035    0.88220    1.000
    H1240    H        0.35055    0.57235    0.77930    1.000
    H1241    H        0.27690    0.90820    0.86500    1.000
    H1242    H        0.37330    0.98960    0.79450    1.000
    H1243    H        0.36835    0.98745    0.89860    1.000
    H1244    H        0.27125    0.98745    0.88220    1.000
    H1245    H        0.14835    0.87015    0.77930    1.000
    H1246    H        0.22680    0.85810    0.86500    1.000
    H1247    H        0.21590    0.83220    0.79450    1.000
    H1248    H        0.11395    0.73305    0.89860    1.000
    H1249    H        0.13035    0.84655    0.88220    1.000
    H1250    H        0.07235    0.85055    0.77930    1.000
    H1251    H        0.40820    0.77690    0.86500    1.000
    H1252    H        0.48960    0.87330    0.79450    1.000
    H1253    H        0.48745    0.86835    0.89860    1.000
    H1254    H        0.48745    0.77125    0.88220    1.000
    H1255    H        0.12985    0.85165    0.72070    1.000
    H1256    H        0.14190    0.77320    0.63500    1.000
    H1257    H        0.16780    0.78410    0.70550    1.000
    H1258    H        0.26695    0.88605    0.60140    1.000
    H1259    H        0.15345    0.86965    0.61780    1.000
    H1260    H        0.14945    0.92765    0.72070    1.000
    H1261    H        0.22310    0.59180    0.63500    1.000
    H1262    H        0.12670    0.51040    0.70550    1.000
    H1263    H        0.13165    0.51255    0.60140    1.000
    H1264    H        0.22875    0.51255    0.61780    1.000
    C1265    C        0.33605    0.60155    0.73400    1.000
    C1266    C        0.30804    0.58366    0.72400    1.000
    C1267    C        0.29953    0.60703    0.69294    1.000
    C1268    C        0.27158    0.58924    0.68438    1.000
    C1269    C        0.26225    0.61295    0.65240    1.000
    C1270    C        0.32319    0.65309    0.66633    1.000
    C1271    C        0.30945    0.67915    0.67980    1.000
    C1272    C        0.33272    0.72122    0.65587    1.000
    C1273    C        0.37015    0.73825    0.61770    1.000
    C1274    C        0.38458    0.71298    0.60315    1.000
    C1275    C        0.36053    0.67053    0.62754    1.000
    C1276    C        0.31750    0.74920    0.67080    1.000
    C1277    C        0.42635    0.73115    0.56250    1.000
    C1278    C        0.42995    0.66445    0.73400    1.000
    C1279    C        0.46796    0.69234    0.72400    1.000
    C1280    C        0.00753    0.70003    0.69294    1.000
    C1281    C        0.04404    0.72638    0.68438    1.000
    C1282    C        0.08535    0.73465    0.65240    1.000
    C1283    C        0.01048    0.68059    0.66633    1.000
    C1284    C        0.01075    0.64105    0.67980    1.000
    C1285    C        0.01141    0.62292    0.65587    1.000
    C1286    C        0.01215    0.64405    0.61770    1.000
    C1287    C        0.01227    0.68388    0.60315    1.000
    C1288    C        0.01193    0.70193    0.62754    1.000
    C1289    C        0.01170    0.58000    0.67080    1.000
    C1290    C        0.01115    0.70635    0.56250    1.000
    C1291    C        0.39845    0.66395    0.76600    1.000
    C1292    C        0.41634    0.69196    0.77600    1.000
    C1293    C        0.39297    0.70047    0.80706    1.000
    C1294    C        0.41076    0.72842    0.81562    1.000
    C1295    C        0.38705    0.73775    0.84760    1.000
    C1296    C        0.34692    0.67681    0.83367    1.000
    C1297    C        0.32085    0.69055    0.82020    1.000
    C1298    C        0.27879    0.66729    0.84413    1.000
    C1299    C        0.26175    0.62985    0.88230    1.000
    C1300    C        0.28703    0.61543    0.89685    1.000
    C1301    C        0.32947    0.63947    0.87246    1.000
    C1302    C        0.25080    0.68250    0.82920    1.000
    C1303    C        0.26885    0.57365    0.93750    1.000
    C1304    C        0.33555    0.57005    0.76600    1.000
    C1305    C        0.30766    0.53204    0.77600    1.000
    C1306    C        0.29997    0.99247    0.80706    1.000
    C1307    C        0.27362    0.95596    0.81562    1.000
    C1308    C        0.26535    0.91465    0.84760    1.000
    C1309    C        0.31942    0.98952    0.83367    1.000
    C1310    C        0.35895    0.98925    0.82020    1.000
    C1311    C        0.37709    0.98859    0.84413    1.000
    C1312    C        0.35595    0.98785    0.88230    1.000
    C1313    C        0.31612    0.98773    0.89685    1.000
    C1314    C        0.29807    0.98807    0.87246    1.000
    C1315    C        0.42000    0.98830    0.82920    1.000
    C1316    C        0.29365    0.98885    0.93750    1.000
    C1317    C        0.16395    0.89845    0.76600    1.000
    C1318    C        0.19196    0.91634    0.77600    1.000
    C1319    C        0.20047    0.89297    0.80706    1.000
    C1320    C        0.22842    0.91076    0.81562    1.000
    C1321    C        0.23775    0.88705    0.84760    1.000
    C1322    C        0.17682    0.84692    0.83367    1.000
    C1323    C        0.19055    0.82085    0.82020    1.000
    C1324    C        0.16729    0.77879    0.84413    1.000
    C1325    C        0.12985    0.76175    0.88230    1.000
    C1326    C        0.11543    0.78703    0.89685    1.000
    C1327    C        0.13947    0.82947    0.87246    1.000
    C1328    C        0.18250    0.75080    0.82920    1.000
    C1329    C        0.07365    0.76885    0.93750    1.000
    C1330    C        0.07005    0.83555    0.76600    1.000
    C1331    C        0.03204    0.80766    0.77600    1.000
    C1332    C        0.49247    0.79997    0.80706    1.000
    C1333    C        0.45596    0.77362    0.81562    1.000
    C1334    C        0.41465    0.76535    0.84760    1.000
    C1335    C        0.48952    0.81942    0.83367    1.000
    C1336    C        0.48925    0.85895    0.82020    1.000
    C1337    C        0.48859    0.87708    0.84413    1.000
    C1338    C        0.48785    0.85595    0.88230    1.000
    C1339    C        0.48773    0.81613    0.89685    1.000
    C1340    C        0.48807    0.79807    0.87246    1.000
    C1341    C        0.48830    0.92000    0.82920    1.000
    C1342    C        0.48885    0.79365    0.93750    1.000
    C1343    C        0.10155    0.83605    0.73400    1.000
    C1344    C        0.08366    0.80804    0.72400    1.000
    C1345    C        0.10703    0.79953    0.69294    1.000
    C1346    C        0.08924    0.77158    0.68438    1.000
    C1347    C        0.11295    0.76225    0.65240    1.000
    C1348    C        0.15309    0.82319    0.66633    1.000
    C1349    C        0.17915    0.80945    0.67980    1.000
    C1350    C        0.22122    0.83272    0.65587    1.000
    C1351    C        0.23825    0.87015    0.61770    1.000
    C1352    C        0.21298    0.88458    0.60315    1.000
    C1353    C        0.17053    0.86053    0.62754    1.000
    C1354    C        0.24920    0.81750    0.67080    1.000
    C1355    C        0.23115    0.92635    0.56250    1.000
    C1356    C        0.16445    0.92995    0.73400    1.000
    C1357    C        0.19234    0.96796    0.72400    1.000
    C1358    C        0.20003    0.50753    0.69294    1.000
    C1359    C        0.22638    0.54404    0.68438    1.000
    C1360    C        0.23465    0.58535    0.65240    1.000
    C1361    C        0.18059    0.51049    0.66633    1.000
    C1362    C        0.14105    0.51075    0.67980    1.000
    C1363    C        0.12292    0.51141    0.65587    1.000
    C1364    C        0.14405    0.51215    0.61770    1.000
    C1365    C        0.18388    0.51227    0.60315    1.000
    C1366    C        0.20193    0.51193    0.62754    1.000
    C1367    C        0.08000    0.51170    0.67080    1.000
    C1368    C        0.20635    0.51115    0.56250    1.000
    N1369    N        0.24918    0.54738    0.70344    1.000
    N1370    N        0.04738    0.74918    0.70344    1.000
    N1371    N        0.45262    0.75082    0.79656    1.000
    N1372    N        0.25082    0.95262    0.79656    1.000
    N1373    N        0.29120    0.54120    0.75000    1.000
    N1374    N        0.45880    0.70880    0.75000    1.000
    N1375    N        0.20880    0.95880    0.75000    1.000
    N1376    N        0.04120    0.79120    0.75000    1.000
    Cl1377   Cl       0.04150    0.85295    0.50000    1.000
    Cl1378   Cl       0.45850    0.64705    0.50000    1.000
    Cl1379   Cl       0.14705    0.95850    0.50000    1.000
    Cl1380   Cl       0.35295    0.54150    0.50000    1.000
    Cl1381   Cl       0.19219    0.50158    0.80623    1.000
    Cl1382   Cl       0.30782    0.99842    0.69377    1.000
    O1383    O        0.28492    0.73250    0.70629    1.000
    O1384    O        0.33965    0.78705    0.64700    1.000
    O1385    O        0.45033    0.76733    0.54715    1.000
    O1386    O        0.43381    0.70780    0.54809    1.000
    O1387    O        0.00879    0.56122    0.70629    1.000
    O1388    O        0.01335    0.56595    0.64700    1.000
    O1389    O        0.00252    0.68553    0.54715    1.000
    O1390    O        0.01810    0.74411    0.54809    1.000
    O1391    O        0.26751    0.71509    0.79371    1.000
    O1392    O        0.21295    0.66035    0.85300    1.000
    O1393    O        0.23268    0.54967    0.95285    1.000
    O1394    O        0.29220    0.56619    0.95191    1.000
    O1395    O        0.43879    0.99121    0.79371    1.000
    O1396    O        0.43405    0.98665    0.85300    1.000
    O1397    O        0.31448    0.99748    0.95285    1.000
    O1398    O        0.25589    0.98190    0.95191    1.000
    O1399    O        0.21509    0.76751    0.79371    1.000
    O1400    O        0.16035    0.71295    0.85300    1.000
    O1401    O        0.04968    0.73267    0.95285    1.000
    O1402    O        0.06619    0.79220    0.95191    1.000
    O1403    O        0.49121    0.93879    0.79371    1.000
    O1404    O        0.48665    0.93405    0.85300    1.000
    O1405    O        0.49748    0.81448    0.95285    1.000
    O1406    O        0.48190    0.75589    0.95191    1.000
    O1407    O        0.23250    0.78492    0.70629    1.000
    O1408    O        0.28705    0.83965    0.64700    1.000
    O1409    O        0.26733    0.95033    0.54715    1.000
    O1410    O        0.20780    0.93381    0.54809    1.000
    O1411    O        0.06122    0.50880    0.70629    1.000
    O1412    O        0.06595    0.51335    0.64700    1.000
    O1413    O        0.18553    0.50253    0.54715    1.000
    O1414    O        0.24411    0.51810    0.54809    1.000
    Mn1415   Mn       0.75000    0.50000    0.75000    1.000
    Mn1416   Mn       0.50000    0.75000    0.75000    1.000
    Mn1417   Mn       0.75000    0.75000    0.75000    1.000
    Mn1418   Mn       0.50000    0.50000    0.75000    1.000
    Mn1419   Mn       0.84170    0.84170    0.64617    1.000
    Mn1420   Mn       0.51213    0.51213    0.64617    1.000
    Mn1421   Mn       0.65830    0.65830    0.85383    1.000
    Mn1422   Mn       0.98787    0.98787    0.85383    1.000
    Mn1423   Mn       0.51459    0.79276    0.50000    1.000
    Mn1424   Mn       0.98542    0.70725    0.50000    1.000
    Mn1425   Mn       0.70725    0.98542    0.50000    1.000
    Mn1426   Mn       0.79276    0.51458    0.50000    1.000
    H1427    H        0.85165    0.62985    0.72070    1.000
    H1428    H        0.77320    0.64190    0.63500    1.000
    H1429    H        0.78410    0.66780    0.70550    1.000
    H1430    H        0.88605    0.76695    0.60140    1.000
    H1431    H        0.86965    0.65345    0.61780    1.000
    H1432    H        0.92765    0.64945    0.72070    1.000
    H1433    H        0.59180    0.72310    0.63500    1.000
    H1434    H        0.51040    0.62670    0.70550    1.000
    H1435    H        0.51255    0.63165    0.60140    1.000
    H1436    H        0.51255    0.72875    0.61780    1.000
    H1437    H        0.87015    0.64835    0.77930    1.000
    H1438    H        0.85810    0.72680    0.86500    1.000
    H1439    H        0.83220    0.71590    0.79450    1.000
    H1440    H        0.73305    0.61395    0.89860    1.000
    H1441    H        0.84655    0.63035    0.88220    1.000
    H1442    H        0.85055    0.57235    0.77930    1.000
    H1443    H        0.77690    0.90820    0.86500    1.000
    H1444    H        0.87330    0.98960    0.79450    1.000
    H1445    H        0.86835    0.98745    0.89860    1.000
    H1446    H        0.77125    0.98745    0.88220    1.000
    H1447    H        0.64835    0.87015    0.77930    1.000
    H1448    H        0.72680    0.85810    0.86500    1.000
    H1449    H        0.71590    0.83220    0.79450    1.000
    H1450    H        0.61395    0.73305    0.89860    1.000
    H1451    H        0.63035    0.84655    0.88220    1.000
    H1452    H        0.57235    0.85055    0.77930    1.000
    H1453    H        0.90820    0.77690    0.86500    1.000
    H1454    H        0.98960    0.87330    0.79450    1.000
    H1455    H        0.98745    0.86835    0.89860    1.000
    H1456    H        0.98745    0.77125    0.88220    1.000
    H1457    H        0.62985    0.85165    0.72070    1.000
    H1458    H        0.64190    0.77320    0.63500    1.000
    H1459    H        0.66780    0.78410    0.70550    1.000
    H1460    H        0.76695    0.88605    0.60140    1.000
    H1461    H        0.65345    0.86965    0.61780    1.000
    H1462    H        0.64945    0.92765    0.72070    1.000
    H1463    H        0.72310    0.59180    0.63500    1.000
    H1464    H        0.62670    0.51040    0.70550    1.000
    H1465    H        0.63165    0.51255    0.60140    1.000
    H1466    H        0.72875    0.51255    0.61780    1.000
    C1467    C        0.83605    0.60155    0.73400    1.000
    C1468    C        0.80804    0.58366    0.72400    1.000
    C1469    C        0.79953    0.60703    0.69294    1.000
    C1470    C        0.77158    0.58924    0.68438    1.000
    C1471    C        0.76225    0.61295    0.65240    1.000
    C1472    C        0.82319    0.65308    0.66633    1.000
    C1473    C        0.80945    0.67915    0.67980    1.000
    C1474    C        0.83272    0.72122    0.65587    1.000
    C1475    C        0.87015    0.73825    0.61770    1.000
    C1476    C        0.88458    0.71298    0.60315    1.000
    C1477    C        0.86053    0.67053    0.62754    1.000
    C1478    C        0.81750    0.74920    0.67080    1.000
    C1479    C        0.92635    0.73115    0.56250    1.000
    C1480    C        0.92995    0.66445    0.73400    1.000
    C1481    C        0.96796    0.69234    0.72400    1.000
    C1482    C        0.50753    0.70003    0.69294    1.000
    C1483    C        0.54404    0.72638    0.68438    1.000
    C1484    C        0.58535    0.73465    0.65240    1.000
    C1485    C        0.51049    0.68059    0.66633    1.000
    C1486    C        0.51075    0.64105    0.67980    1.000
    C1487    C        0.51142    0.62292    0.65587    1.000
    C1488    C        0.51215    0.64405    0.61770    1.000
    C1489    C        0.51228    0.68388    0.60315    1.000
    C1490    C        0.51193    0.70193    0.62754    1.000
    C1491    C        0.51170    0.58000    0.67080    1.000
    C1492    C        0.51115    0.70635    0.56250    1.000
    C1493    C        0.89845    0.66395    0.76600    1.000
    C1494    C        0.91634    0.69196    0.77600    1.000
    C1495    C        0.89297    0.70047    0.80706    1.000
    C1496    C        0.91076    0.72842    0.81562    1.000
    C1497    C        0.88705    0.73775    0.84760    1.000
    C1498    C        0.84692    0.67681    0.83367    1.000
    C1499    C        0.82085    0.69055    0.82020    1.000
    C1500    C        0.77879    0.66729    0.84413    1.000
    C1501    C        0.76175    0.62985    0.88230    1.000
    C1502    C        0.78703    0.61543    0.89685    1.000
    C1503    C        0.82947    0.63947    0.87246    1.000
    C1504    C        0.75080    0.68250    0.82920    1.000
    C1505    C        0.76885    0.57365    0.93750    1.000
    C1506    C        0.83555    0.57005    0.76600    1.000
    C1507    C        0.80766    0.53204    0.77600    1.000
    C1508    C        0.79997    0.99247    0.80706    1.000
    C1509    C        0.77362    0.95596    0.81562    1.000
    C1510    C        0.76535    0.91465    0.84760    1.000
    C1511    C        0.81942    0.98952    0.83367    1.000
    C1512    C        0.85895    0.98925    0.82020    1.000
    C1513    C        0.87709    0.98859    0.84413    1.000
    C1514    C        0.85595    0.98785    0.88230    1.000
    C1515    C        0.81613    0.98773    0.89685    1.000
    C1516    C        0.79807    0.98807    0.87246    1.000
    C1517    C        0.92000    0.98830    0.82920    1.000
    C1518    C        0.79365    0.98885    0.93750    1.000
    C1519    C        0.66395    0.89845    0.76600    1.000
    C1520    C        0.69196    0.91634    0.77600    1.000
    C1521    C        0.70047    0.89297    0.80706    1.000
    C1522    C        0.72842    0.91076    0.81562    1.000
    C1523    C        0.73775    0.88705    0.84760    1.000
    C1524    C        0.67682    0.84692    0.83367    1.000
    C1525    C        0.69055    0.82085    0.82020    1.000
    C1526    C        0.66729    0.77879    0.84413    1.000
    C1527    C        0.62985    0.76175    0.88230    1.000
    C1528    C        0.61543    0.78703    0.89685    1.000
    C1529    C        0.63947    0.82947    0.87246    1.000
    C1530    C        0.68250    0.75080    0.82920    1.000
    C1531    C        0.57365    0.76885    0.93750    1.000
    C1532    C        0.57005    0.83555    0.76600    1.000
    C1533    C        0.53204    0.80766    0.77600    1.000
    C1534    C        0.99247    0.79997    0.80706    1.000
    C1535    C        0.95596    0.77362    0.81562    1.000
    C1536    C        0.91465    0.76535    0.84760    1.000
    C1537    C        0.98952    0.81942    0.83367    1.000
    C1538    C        0.98925    0.85895    0.82020    1.000
    C1539    C        0.98859    0.87708    0.84413    1.000
    C1540    C        0.98785    0.85595    0.88230    1.000
    C1541    C        0.98773    0.81613    0.89685    1.000
    C1542    C        0.98807    0.79807    0.87246    1.000
    C1543    C        0.98830    0.92000    0.82920    1.000
    C1544    C        0.98885    0.79365    0.93750    1.000
    C1545    C        0.60155    0.83605    0.73400    1.000
    C1546    C        0.58366    0.80804    0.72400    1.000
    C1547    C        0.60703    0.79953    0.69294    1.000
    C1548    C        0.58924    0.77158    0.68438    1.000
    C1549    C        0.61295    0.76225    0.65240    1.000
    C1550    C        0.65309    0.82319    0.66633    1.000
    C1551    C        0.67915    0.80945    0.67980    1.000
    C1552    C        0.72122    0.83272    0.65587    1.000
    C1553    C        0.73825    0.87015    0.61770    1.000
    C1554    C        0.71298    0.88458    0.60315    1.000
    C1555    C        0.67053    0.86053    0.62754    1.000
    C1556    C        0.74920    0.81750    0.67080    1.000
    C1557    C        0.73115    0.92635    0.56250    1.000
    C1558    C        0.66445    0.92995    0.73400    1.000
    C1559    C        0.69234    0.96796    0.72400    1.000
    C1560    C        0.70003    0.50753    0.69294    1.000
    C1561    C        0.72638    0.54404    0.68438    1.000
    C1562    C        0.73465    0.58535    0.65240    1.000
    C1563    C        0.68059    0.51049    0.66633    1.000
    C1564    C        0.64105    0.51075    0.67980    1.000
    C1565    C        0.62292    0.51141    0.65587    1.000
    C1566    C        0.64405    0.51215    0.61770    1.000
    C1567    C        0.68388    0.51227    0.60315    1.000
    C1568    C        0.70193    0.51193    0.62754    1.000
    C1569    C        0.58000    0.51170    0.67080    1.000
    C1570    C        0.70635    0.51115    0.56250    1.000
    N1571    N        0.74918    0.54738    0.70344    1.000
    N1572    N        0.54738    0.74918    0.70344    1.000
    N1573    N        0.95262    0.75082    0.79656    1.000
    N1574    N        0.75082    0.95262    0.79656    1.000
    N1575    N        0.79120    0.54120    0.75000    1.000
    N1576    N        0.95880    0.70880    0.75000    1.000
    N1577    N        0.70880    0.95880    0.75000    1.000
    N1578    N        0.54120    0.79120    0.75000    1.000
    Cl1579   Cl       0.54150    0.85295    0.50000    1.000
    Cl1580   Cl       0.95850    0.64705    0.50000    1.000
    Cl1581   Cl       0.64705    0.95850    0.50000    1.000
    Cl1582   Cl       0.85295    0.54150    0.50000    1.000
    Cl1583   Cl       0.50158    0.69219    0.80623    1.000
    Cl1584   Cl       0.99842    0.80782    0.69377    1.000
    Cl1585   Cl       0.80782    0.99842    0.69377    1.000
    O1586    O        0.78492    0.73250    0.70629    1.000
    O1587    O        0.83965    0.78705    0.64700    1.000
    O1588    O        0.95033    0.76733    0.54715    1.000
    O1589    O        0.93381    0.70780    0.54809    1.000
    O1590    O        0.50879    0.56122    0.70629    1.000
    O1591    O        0.51335    0.56595    0.64700    1.000
    O1592    O        0.50253    0.68553    0.54715    1.000
    O1593    O        0.51810    0.74411    0.54809    1.000
    O1594    O        0.76751    0.71509    0.79371    1.000
    O1595    O        0.71295    0.66035    0.85300    1.000
    O1596    O        0.73268    0.54967    0.95285    1.000
    O1597    O        0.79220    0.56619    0.95191    1.000
    O1598    O        0.93879    0.99121    0.79371    1.000
    O1599    O        0.93405    0.98665    0.85300    1.000
    O1600    O        0.81448    0.99748    0.95285    1.000
    O1601    O        0.75589    0.98190    0.95191    1.000
    O1602    O        0.71509    0.76751    0.79371    1.000
    O1603    O        0.66035    0.71295    0.85300    1.000
    O1604    O        0.54968    0.73268    0.95285    1.000
    O1605    O        0.56619    0.79220    0.95191    1.000
    O1606    O        0.99121    0.93879    0.79371    1.000
    O1607    O        0.98665    0.93405    0.85300    1.000
    O1608    O        0.99748    0.81448    0.95285    1.000
    O1609    O        0.98190    0.75589    0.95191    1.000
    O1610    O        0.73250    0.78492    0.70629    1.000
    O1611    O        0.78705    0.83965    0.64700    1.000
    O1612    O        0.76733    0.95033    0.54715    1.000
    O1613    O        0.70780    0.93381    0.54809    1.000
    O1614    O        0.56122    0.50880    0.70629    1.000
    O1615    O        0.56595    0.51335    0.64700    1.000
    O1616    O        0.68553    0.50253    0.54715    1.000
    O1617    O        0.74411    0.51810    0.54809    1.000
