# CIF file generated by openbabel 3.1.0, see https://openbabel.org
data_I
_chemical_name_common 'ELILER_clean'
_cell_length_a 9.349
_cell_length_b 9.8
_cell_length_c 11.379
_cell_angle_alpha 94.441
_cell_angle_beta 99.305
_cell_angle_gamma 111.527
_space_group_name_H-M_alt 'P 1'
_space_group_name_Hall 'P 1'
loop_
    _symmetry_equiv_pos_as_xyz
    x,y,z
loop_
    _atom_site_label
    _atom_site_type_symbol
    _atom_site_fract_x
    _atom_site_fract_y
    _atom_site_fract_z
    _atom_site_occupancy
    Er1      Er       0.72419    0.45490    0.01131    1.000
    Er2      Er       0.27581    0.54510    0.98869    1.000
    H1       H        0.72940    0.77230    0.37580    1.000
    H2       H        0.82320    0.89840    0.56550    1.000
    H3       H        0.15300    0.72560    0.61680    1.000
    H4       H        0.06640    0.60640    0.42080    1.000
    H5       H        0.07680    0.14050    0.83730    1.000
    H6       H        0.67810    0.99640    0.96090    1.000
    H7       H        0.80290    0.70760    0.77690    1.000
    H8       H        0.27060    0.22770    0.62420    1.000
    H9       H        0.17680    0.10160    0.43450    1.000
    H10      H        0.84700    0.27440    0.38320    1.000
    H11      H        0.93360    0.39360    0.57920    1.000
    H12      H        0.92320    0.85950    0.16270    1.000
    H13      H        0.32190    0.00360    0.03910    1.000
    H14      H        0.19710    0.29240    0.22310    1.000
    C1       C        0.82390    0.58700    0.25300    1.000
    C2       C        0.88300    0.66980    0.37410    1.000
    C3       C        0.81490    0.76240    0.42330    1.000
    C4       C        0.86940    0.83690    0.53670    1.000
    C5       C        0.99530    0.82100    0.61020    1.000
    C6       C        0.06840    0.73490    0.56760    1.000
    C7       C        0.01460    0.66220    0.45040    1.000
    C8       C        0.95070    0.92220    0.79350    1.000
    C9       C        0.98570    0.06400    0.84560    1.000
    C10      C        0.88440    0.09290    0.91060    1.000
    C11      C        0.74950    0.97690    0.92110    1.000
    C12      C        0.71890    0.83200    0.87320    1.000
    C13      C        0.82100    0.80410    0.80910    1.000
    C14      C        0.91850    0.24580    0.96640    1.000
    C15      C        0.58310    0.70850    0.89680    1.000
    C16      C        0.17610    0.41300    0.74700    1.000
    C17      C        0.11700    0.33020    0.62590    1.000
    C18      C        0.18510    0.23760    0.57670    1.000
    C19      C        0.13060    0.16310    0.46330    1.000
    C20      C        0.00470    0.17900    0.38980    1.000
    C21      C        0.93160    0.26510    0.43240    1.000
    C22      C        0.98540    0.33780    0.54960    1.000
    C23      C        0.04930    0.07780    0.20650    1.000
    C24      C        0.01430    0.93600    0.15440    1.000
    C25      C        0.11560    0.90710    0.08940    1.000
    C26      C        0.25050    0.02310    0.07890    1.000
    C27      C        0.28110    0.16800    0.12680    1.000
    C28      C        0.17900    0.19590    0.19090    1.000
    C29      C        0.08150    0.75420    0.03360    1.000
    C30      C        0.41690    0.29150    0.10320    1.000
    O1       O        0.87780    0.49480    0.21670    1.000
    O2       O        0.71980    0.61150    0.18260    1.000
    O3       O        0.45240    0.72260    0.89390    1.000
    O4       O        0.60020    0.59060    0.92190    1.000
    O5       O        0.81020    0.26870    0.00900    1.000
    O6       O        0.05030    0.34470    0.97070    1.000
    O7       O        0.05650    0.89560    0.72730    1.000
    O8       O        0.12220    0.50520    0.78330    1.000
    O9       O        0.28020    0.38850    0.81740    1.000
    O10      O        0.54760    0.27740    0.10610    1.000
    O11      O        0.39980    0.40940    0.07810    1.000
    O12      O        0.18980    0.73130    0.99100    1.000
    O13      O        0.94970    0.65530    0.02930    1.000
    O14      O        0.94350    0.10440    0.27270    1.000
