# CIF file generated by openbabel 3.1.0, see https://openbabel.org
data_I
_chemical_name_common 'image0'
_cell_length_a 24.5063
_cell_length_b 24.5063
_cell_length_c 24.5063
_cell_angle_alpha 90
_cell_angle_beta 90
_cell_angle_gamma 90
_space_group_name_H-M_alt 'P 1'
_space_group_name_Hall 'P 1'
loop_
    _symmetry_equiv_pos_as_xyz
    x,y,z
loop_
    _atom_site_label
    _atom_site_type_symbol
    _atom_site_fract_x
    _atom_site_fract_y
    _atom_site_fract_z
    _atom_site_occupancy
    Co1      Co       0.89611    0.02906    0.06681    1.000
    C1       C        0.81340    0.11150    0.10580    1.000
    H1       H        0.79060    0.09100    0.08210    1.000
    C2       C        0.79050    0.15510    0.13260    1.000
    H2       H        0.75270    0.16310    0.12910    1.000
    C3       C        0.82490    0.18770    0.16550    1.000
    C4       C        0.87840    0.17190    0.17090    1.000
    H3       H        0.90250    0.19230    0.19330    1.000
    C5       C        0.89710    0.12610    0.14380    1.000
    H4       H        0.93410    0.11560    0.14860    1.000
    C6       C        0.79350    0.96130    0.04200    1.000
    H5       H        0.80710    0.96230    0.00580    1.000
    C7       C        0.74540    0.93470    0.05150    1.000
    H6       H        0.72620    0.91840    0.02210    1.000
    C8       C        0.72480    0.93160    0.10320    1.000
    C9       C        0.75380    0.95690    0.14430    1.000
    H7       H        0.74060    0.95660    0.18080    1.000
    C10      C        0.80210    0.98250    0.13180    1.000
    H8       H        0.82210    0.99860    0.16090    1.000
    C11      C        0.80230    0.23630    0.19260    1.000
    C12      C        0.67490    0.90080    0.11570    1.000
    N1       N        0.82280    0.98620    0.08170    1.000
    N2       N        0.86520    0.09580    0.11080    1.000
    F1       F        0.86540    0.06370    0.99780    1.000
    F2       F        0.93280    0.96170    0.03160    1.000
    C13      C        0.75620    0.26140    0.17200    1.000
    C14      C        0.64430    0.91500    0.16050    1.000
    H9       H        0.73840    0.24710    0.14070    1.000
    H10      H        0.65420    0.94590    0.18170    1.000
    N3       N        0.82800    0.25620    0.23860    1.000
    N4       N        0.66050    0.85570    0.08500    1.000
    Co2      Co       0.60389    0.97094    0.56681    1.000
    C15      C        0.68660    0.88850    0.60580    1.000
    H11      H        0.70940    0.90900    0.58210    1.000
    C16      C        0.70950    0.84490    0.63260    1.000
    H12      H        0.74730    0.83690    0.62910    1.000
    C17      C        0.67510    0.81230    0.66550    1.000
    C18      C        0.62160    0.82810    0.67090    1.000
    H13      H        0.59750    0.80770    0.69330    1.000
    C19      C        0.60290    0.87390    0.64380    1.000
    H14      H        0.56590    0.88440    0.64860    1.000
    C20      C        0.70650    0.03870    0.54200    1.000
    H15      H        0.69290    0.03770    0.50580    1.000
    C21      C        0.75460    0.06530    0.55150    1.000
    H16      H        0.77380    0.08160    0.52210    1.000
    C22      C        0.77520    0.06840    0.60320    1.000
    C23      C        0.74620    0.04310    0.64430    1.000
    H17      H        0.75940    0.04340    0.68080    1.000
    C24      C        0.69790    0.01750    0.63180    1.000
    H18      H        0.67790    0.00140    0.66090    1.000
    C25      C        0.69770    0.76370    0.69260    1.000
    C26      C        0.82510    0.09920    0.61570    1.000
    N5       N        0.67720    0.01380    0.58170    1.000
    N6       N        0.63480    0.90420    0.61080    1.000
    F3       F        0.63460    0.93630    0.49780    1.000
    F4       F        0.56720    0.03830    0.53160    1.000
    C27      C        0.74380    0.73860    0.67200    1.000
    C28      C        0.85570    0.08500    0.66050    1.000
    H19      H        0.76160    0.75290    0.64070    1.000
    H20      H        0.84580    0.05410    0.68170    1.000
    N7       N        0.67200    0.74380    0.73860    1.000
    N8       N        0.83950    0.14430    0.58500    1.000
    Co3      Co       0.10389    0.52906    0.43319    1.000
    C29      C        0.18660    0.61150    0.39420    1.000
    H21      H        0.20940    0.59100    0.41790    1.000
    C30      C        0.20950    0.65510    0.36740    1.000
    H22      H        0.24730    0.66310    0.37090    1.000
    C31      C        0.17510    0.68770    0.33450    1.000
    C32      C        0.12160    0.67190    0.32910    1.000
    H23      H        0.09750    0.69230    0.30670    1.000
    C33      C        0.10290    0.62610    0.35620    1.000
    H24      H        0.06590    0.61560    0.35140    1.000
    C34      C        0.20650    0.46130    0.45800    1.000
    H25      H        0.19290    0.46230    0.49420    1.000
    C35      C        0.25460    0.43470    0.44850    1.000
    H26      H        0.27380    0.41840    0.47790    1.000
    C36      C        0.27520    0.43160    0.39680    1.000
    C37      C        0.24620    0.45690    0.35570    1.000
    H27      H        0.25940    0.45660    0.31920    1.000
    C38      C        0.19790    0.48250    0.36820    1.000
    H28      H        0.17790    0.49860    0.33910    1.000
    C39      C        0.19770    0.73630    0.30740    1.000
    C40      C        0.32510    0.40080    0.38430    1.000
    N9       N        0.17720    0.48620    0.41830    1.000
    N10      N        0.13480    0.59580    0.38920    1.000
    F5       F        0.13460    0.56370    0.50220    1.000
    F6       F        0.06720    0.46170    0.46840    1.000
    C41      C        0.24380    0.76140    0.32800    1.000
    C42      C        0.35570    0.41500    0.33950    1.000
    H29      H        0.26160    0.74710    0.35930    1.000
    H30      H        0.34580    0.44590    0.31830    1.000
    N11      N        0.17200    0.75620    0.26140    1.000
    N12      N        0.33950    0.35570    0.41500    1.000
    Co4      Co       0.39611    0.47094    0.93319    1.000
    C43      C        0.31340    0.38850    0.89420    1.000
    H31      H        0.29060    0.40900    0.91790    1.000
    C44      C        0.29050    0.34490    0.86740    1.000
    H32      H        0.25270    0.33690    0.87090    1.000
    C45      C        0.32490    0.31230    0.83450    1.000
    C46      C        0.37840    0.32810    0.82910    1.000
    H33      H        0.40250    0.30770    0.80670    1.000
    C47      C        0.39710    0.37390    0.85620    1.000
    H34      H        0.43410    0.38440    0.85140    1.000
    C48      C        0.29350    0.53870    0.95800    1.000
    H35      H        0.30710    0.53770    0.99420    1.000
    C49      C        0.24540    0.56530    0.94850    1.000
    H36      H        0.22620    0.58160    0.97790    1.000
    C50      C        0.22480    0.56840    0.89680    1.000
    C51      C        0.25380    0.54310    0.85570    1.000
    H37      H        0.24060    0.54340    0.81920    1.000
    C52      C        0.30210    0.51750    0.86820    1.000
    H38      H        0.32210    0.50140    0.83910    1.000
    C53      C        0.30230    0.26370    0.80740    1.000
    C54      C        0.17490    0.59920    0.88430    1.000
    N13      N        0.32280    0.51380    0.91830    1.000
    N14      N        0.36520    0.40420    0.88920    1.000
    F7       F        0.36540    0.43630    0.00220    1.000
    F8       F        0.43280    0.53830    0.96840    1.000
    C55      C        0.25620    0.23860    0.82800    1.000
    C56      C        0.14430    0.58500    0.83950    1.000
    H39      H        0.23840    0.25290    0.85930    1.000
    H40      H        0.15420    0.55410    0.81830    1.000
    N15      N        0.32800    0.24380    0.76140    1.000
    N16      N        0.16050    0.64430    0.91500    1.000
    Co5      Co       0.06681    0.89611    0.02906    1.000
    C57      C        0.10580    0.81340    0.11150    1.000
    H41      H        0.08210    0.79060    0.09100    1.000
    C58      C        0.13260    0.79050    0.15510    1.000
    H42      H        0.12910    0.75270    0.16310    1.000
    C59      C        0.16550    0.82490    0.18770    1.000
    C60      C        0.17090    0.87840    0.17190    1.000
    H43      H        0.19330    0.90250    0.19230    1.000
    C61      C        0.14380    0.89710    0.12610    1.000
    H44      H        0.14860    0.93410    0.11560    1.000
    C62      C        0.04200    0.79350    0.96130    1.000
    H45      H        0.00580    0.80710    0.96230    1.000
    C63      C        0.05150    0.74540    0.93470    1.000
    H46      H        0.02210    0.72620    0.91840    1.000
    C64      C        0.10320    0.72480    0.93160    1.000
    C65      C        0.14430    0.75380    0.95690    1.000
    H47      H        0.18080    0.74060    0.95660    1.000
    C66      C        0.13180    0.80210    0.98250    1.000
    H48      H        0.16090    0.82210    0.99860    1.000
    C67      C        0.19260    0.80230    0.23630    1.000
    C68      C        0.11570    0.67490    0.90080    1.000
    N17      N        0.08170    0.82280    0.98620    1.000
    N18      N        0.11080    0.86520    0.09580    1.000
    F9       F        0.99780    0.86540    0.06370    1.000
    F10      F        0.03160    0.93280    0.96170    1.000
    H49      H        0.14070    0.73840    0.24710    1.000
    H50      H        0.18170    0.65420    0.94590    1.000
    N19      N        0.23860    0.82800    0.25620    1.000
    N20      N        0.08500    0.66050    0.85570    1.000
    Co6      Co       0.56681    0.60389    0.97094    1.000
    C69      C        0.60580    0.68660    0.88850    1.000
    H51      H        0.58210    0.70940    0.90900    1.000
    C70      C        0.63260    0.70950    0.84490    1.000
    H52      H        0.62910    0.74730    0.83690    1.000
    C71      C        0.66550    0.67510    0.81230    1.000
    C72      C        0.67090    0.62160    0.82810    1.000
    H53      H        0.69330    0.59750    0.80770    1.000
    C73      C        0.64380    0.60290    0.87390    1.000
    H54      H        0.64860    0.56590    0.88440    1.000
    C74      C        0.54200    0.70650    0.03870    1.000
    H55      H        0.50580    0.69290    0.03770    1.000
    C75      C        0.55150    0.75460    0.06530    1.000
    H56      H        0.52210    0.77380    0.08160    1.000
    C76      C        0.60320    0.77520    0.06840    1.000
    C77      C        0.64430    0.74620    0.04310    1.000
    H57      H        0.68080    0.75940    0.04340    1.000
    C78      C        0.63180    0.69790    0.01750    1.000
    H58      H        0.66090    0.67790    0.00140    1.000
    C79      C        0.69260    0.69770    0.76370    1.000
    C80      C        0.61570    0.82510    0.09920    1.000
    N21      N        0.58170    0.67720    0.01380    1.000
    N22      N        0.61080    0.63480    0.90420    1.000
    F11      F        0.49780    0.63460    0.93630    1.000
    F12      F        0.53160    0.56720    0.03830    1.000
    H59      H        0.64070    0.76160    0.75290    1.000
    H60      H        0.68170    0.84580    0.05410    1.000
    N23      N        0.73860    0.67200    0.74380    1.000
    N24      N        0.58500    0.83950    0.14430    1.000
    Co7      Co       0.43319    0.10389    0.52906    1.000
    C81      C        0.39420    0.18660    0.61150    1.000
    H61      H        0.41790    0.20940    0.59100    1.000
    C82      C        0.36740    0.20950    0.65510    1.000
    H62      H        0.37090    0.24730    0.66310    1.000
    C83      C        0.33450    0.17510    0.68770    1.000
    C84      C        0.32910    0.12160    0.67190    1.000
    H63      H        0.30670    0.09750    0.69230    1.000
    C85      C        0.35620    0.10290    0.62610    1.000
    H64      H        0.35140    0.06590    0.61560    1.000
    C86      C        0.45800    0.20650    0.46130    1.000
    H65      H        0.49420    0.19290    0.46230    1.000
    C87      C        0.44850    0.25460    0.43470    1.000
    H66      H        0.47790    0.27380    0.41840    1.000
    C88      C        0.39680    0.27520    0.43160    1.000
    C89      C        0.35570    0.24620    0.45690    1.000
    H67      H        0.31920    0.25940    0.45660    1.000
    C90      C        0.36820    0.19790    0.48250    1.000
    H68      H        0.33910    0.17790    0.49860    1.000
    C91      C        0.30740    0.19770    0.73630    1.000
    C92      C        0.38430    0.32510    0.40080    1.000
    N25      N        0.41830    0.17720    0.48620    1.000
    N26      N        0.38920    0.13480    0.59580    1.000
    F13      F        0.50220    0.13460    0.56370    1.000
    F14      F        0.46840    0.06720    0.46170    1.000
    H69      H        0.35930    0.26160    0.74710    1.000
    H70      H        0.31830    0.34580    0.44590    1.000
    N27      N        0.26140    0.17200    0.75620    1.000
    N28      N        0.41500    0.33950    0.35570    1.000
    Co8      Co       0.93319    0.39611    0.47094    1.000
    C93      C        0.89420    0.31340    0.38850    1.000
    H71      H        0.91790    0.29060    0.40900    1.000
    C94      C        0.86740    0.29050    0.34490    1.000
    H72      H        0.87090    0.25270    0.33690    1.000
    C95      C        0.83450    0.32490    0.31230    1.000
    C96      C        0.82910    0.37840    0.32810    1.000
    H73      H        0.80670    0.40250    0.30770    1.000
    C97      C        0.85620    0.39710    0.37390    1.000
    H74      H        0.85140    0.43410    0.38440    1.000
    C98      C        0.95800    0.29350    0.53870    1.000
    H75      H        0.99420    0.30710    0.53770    1.000
    C99      C        0.94850    0.24540    0.56530    1.000
    H76      H        0.97790    0.22620    0.58160    1.000
    C100     C        0.89680    0.22480    0.56840    1.000
    C101     C        0.85570    0.25380    0.54310    1.000
    H77      H        0.81920    0.24060    0.54340    1.000
    C102     C        0.86820    0.30210    0.51750    1.000
    H78      H        0.83910    0.32210    0.50140    1.000
    C103     C        0.80740    0.30230    0.26370    1.000
    C104     C        0.88430    0.17490    0.59920    1.000
    N29      N        0.91830    0.32280    0.51380    1.000
    N30      N        0.88920    0.36520    0.40420    1.000
    F15      F        0.00220    0.36540    0.43630    1.000
    F16      F        0.96840    0.43280    0.53830    1.000
    H79      H        0.85930    0.23840    0.25290    1.000
    H80      H        0.81830    0.15420    0.55410    1.000
    N31      N        0.76140    0.32800    0.24380    1.000
    N32      N        0.91500    0.16050    0.64430    1.000
    Co9      Co       0.02906    0.06681    0.89611    1.000
    C105     C        0.11150    0.10580    0.81340    1.000
    H81      H        0.09100    0.08210    0.79060    1.000
    C106     C        0.15510    0.13260    0.79050    1.000
    H82      H        0.16310    0.12910    0.75270    1.000
    C107     C        0.18770    0.16550    0.82490    1.000
    C108     C        0.17190    0.17090    0.87840    1.000
    H83      H        0.19230    0.19330    0.90250    1.000
    C109     C        0.12610    0.14380    0.89710    1.000
    H84      H        0.11560    0.14860    0.93410    1.000
    C110     C        0.96130    0.04200    0.79350    1.000
    H85      H        0.96230    0.00580    0.80710    1.000
    C111     C        0.93470    0.05150    0.74540    1.000
    H86      H        0.91840    0.02210    0.72620    1.000
    C112     C        0.93160    0.10320    0.72480    1.000
    C113     C        0.95690    0.14430    0.75380    1.000
    H87      H        0.95660    0.18080    0.74060    1.000
    C114     C        0.98250    0.13180    0.80210    1.000
    H88      H        0.99860    0.16090    0.82210    1.000
    C115     C        0.23630    0.19260    0.80230    1.000
    C116     C        0.90080    0.11570    0.67490    1.000
    N33      N        0.98620    0.08170    0.82280    1.000
    N34      N        0.09580    0.11080    0.86520    1.000
    F17      F        0.06370    0.99780    0.86540    1.000
    F18      F        0.96170    0.03160    0.93280    1.000
    H89      H        0.24710    0.14070    0.73840    1.000
    H90      H        0.94590    0.18170    0.65420    1.000
    Co10     Co       0.97094    0.56681    0.60389    1.000
    C117     C        0.88850    0.60580    0.68660    1.000
    H91      H        0.90900    0.58210    0.70940    1.000
    C118     C        0.84490    0.63260    0.70950    1.000
    H92      H        0.83690    0.62910    0.74730    1.000
    C119     C        0.81230    0.66550    0.67510    1.000
    C120     C        0.82810    0.67090    0.62160    1.000
    H93      H        0.80770    0.69330    0.59750    1.000
    C121     C        0.87390    0.64380    0.60290    1.000
    H94      H        0.88440    0.64860    0.56590    1.000
    C122     C        0.03870    0.54200    0.70650    1.000
    H95      H        0.03770    0.50580    0.69290    1.000
    C123     C        0.06530    0.55150    0.75460    1.000
    H96      H        0.08160    0.52210    0.77380    1.000
    C124     C        0.06840    0.60320    0.77520    1.000
    C125     C        0.04310    0.64430    0.74620    1.000
    H97      H        0.04340    0.68080    0.75940    1.000
    C126     C        0.01750    0.63180    0.69790    1.000
    H98      H        0.00140    0.66090    0.67790    1.000
    C127     C        0.76370    0.69260    0.69770    1.000
    C128     C        0.09920    0.61570    0.82510    1.000
    N35      N        0.01380    0.58170    0.67720    1.000
    N36      N        0.90420    0.61080    0.63480    1.000
    F19      F        0.93630    0.49780    0.63460    1.000
    F20      F        0.03830    0.53160    0.56720    1.000
    H99      H        0.75290    0.64070    0.76160    1.000
    H100     H        0.05410    0.68170    0.84580    1.000
    Co11     Co       0.52906    0.43319    0.10389    1.000
    C129     C        0.61150    0.39420    0.18660    1.000
    H101     H        0.59100    0.41790    0.20940    1.000
    C130     C        0.65510    0.36740    0.20950    1.000
    H102     H        0.66310    0.37090    0.24730    1.000
    C131     C        0.68770    0.33450    0.17510    1.000
    C132     C        0.67190    0.32910    0.12160    1.000
    H103     H        0.69230    0.30670    0.09750    1.000
    C133     C        0.62610    0.35620    0.10290    1.000
    H104     H        0.61560    0.35140    0.06590    1.000
    C134     C        0.46130    0.45800    0.20650    1.000
    H105     H        0.46230    0.49420    0.19290    1.000
    C135     C        0.43470    0.44850    0.25460    1.000
    H106     H        0.41840    0.47790    0.27380    1.000
    C136     C        0.43160    0.39680    0.27520    1.000
    C137     C        0.45690    0.35570    0.24620    1.000
    H107     H        0.45660    0.31920    0.25940    1.000
    C138     C        0.48250    0.36820    0.19790    1.000
    H108     H        0.49860    0.33910    0.17790    1.000
    C139     C        0.73630    0.30740    0.19770    1.000
    C140     C        0.40080    0.38430    0.32510    1.000
    N37      N        0.48620    0.41830    0.17720    1.000
    N38      N        0.59580    0.38920    0.13480    1.000
    F21      F        0.56370    0.50220    0.13460    1.000
    F22      F        0.46170    0.46840    0.06720    1.000
    H109     H        0.74710    0.35930    0.26160    1.000
    H110     H        0.44590    0.31830    0.34580    1.000
    Co12     Co       0.47094    0.93319    0.39611    1.000
    C141     C        0.38850    0.89420    0.31340    1.000
    H111     H        0.40900    0.91790    0.29060    1.000
    C142     C        0.34490    0.86740    0.29050    1.000
    H112     H        0.33690    0.87090    0.25270    1.000
    C143     C        0.31230    0.83450    0.32490    1.000
    C144     C        0.32810    0.82910    0.37840    1.000
    H113     H        0.30770    0.80670    0.40250    1.000
    C145     C        0.37390    0.85620    0.39710    1.000
    H114     H        0.38440    0.85140    0.43410    1.000
    C146     C        0.53870    0.95800    0.29350    1.000
    H115     H        0.53770    0.99420    0.30710    1.000
    C147     C        0.56530    0.94850    0.24540    1.000
    H116     H        0.58160    0.97790    0.22620    1.000
    C148     C        0.56840    0.89680    0.22480    1.000
    C149     C        0.54310    0.85570    0.25380    1.000
    H117     H        0.54340    0.81920    0.24060    1.000
    C150     C        0.51750    0.86820    0.30210    1.000
    H118     H        0.50140    0.83910    0.32210    1.000
    C151     C        0.26370    0.80740    0.30230    1.000
    C152     C        0.59920    0.88430    0.17490    1.000
    N39      N        0.51380    0.91830    0.32280    1.000
    N40      N        0.40420    0.88920    0.36520    1.000
    F23      F        0.43630    0.00220    0.36540    1.000
    F24      F        0.53830    0.96840    0.43280    1.000
    H119     H        0.25290    0.85930    0.23840    1.000
    H120     H        0.55410    0.81830    0.15420    1.000
    Co13     Co       0.10389    0.97094    0.93319    1.000
    C153     C        0.18660    0.88850    0.89420    1.000
    H121     H        0.20940    0.90900    0.91790    1.000
    C154     C        0.20950    0.84490    0.86740    1.000
    H122     H        0.24730    0.83690    0.87090    1.000
    C155     C        0.17510    0.81230    0.83450    1.000
    C156     C        0.12160    0.82810    0.82910    1.000
    H123     H        0.09750    0.80770    0.80670    1.000
    C157     C        0.10290    0.87390    0.85620    1.000
    H124     H        0.06590    0.88440    0.85140    1.000
    C158     C        0.20650    0.03870    0.95800    1.000
    H125     H        0.19290    0.03770    0.99420    1.000
    C159     C        0.25460    0.06530    0.94850    1.000
    H126     H        0.27380    0.08160    0.97790    1.000
    C160     C        0.27520    0.06840    0.89680    1.000
    C161     C        0.24620    0.04310    0.85570    1.000
    H127     H        0.25940    0.04340    0.81920    1.000
    C162     C        0.19790    0.01750    0.86820    1.000
    H128     H        0.17790    0.00140    0.83910    1.000
    C163     C        0.19770    0.76370    0.80740    1.000
    C164     C        0.32510    0.09920    0.88430    1.000
    N41      N        0.17720    0.01380    0.91830    1.000
    N42      N        0.13480    0.90420    0.88920    1.000
    F25      F        0.13460    0.93630    0.00220    1.000
    F26      F        0.06720    0.03830    0.96840    1.000
    C165     C        0.24380    0.73860    0.82800    1.000
    C166     C        0.35570    0.08500    0.83950    1.000
    H129     H        0.26160    0.75290    0.85930    1.000
    H130     H        0.34580    0.05410    0.81830    1.000
    N43      N        0.17200    0.74380    0.76140    1.000
    N44      N        0.33950    0.14430    0.91500    1.000
    Co14     Co       0.39611    0.02906    0.43319    1.000
    C167     C        0.31340    0.11150    0.39420    1.000
    H131     H        0.29060    0.09100    0.41790    1.000
    C168     C        0.29050    0.15510    0.36740    1.000
    H132     H        0.25270    0.16310    0.37090    1.000
    C169     C        0.32490    0.18770    0.33450    1.000
    C170     C        0.37840    0.17190    0.32910    1.000
    H133     H        0.40250    0.19230    0.30670    1.000
    C171     C        0.39710    0.12610    0.35620    1.000
    H134     H        0.43410    0.11560    0.35140    1.000
    C172     C        0.29350    0.96130    0.45800    1.000
    H135     H        0.30710    0.96230    0.49420    1.000
    C173     C        0.24540    0.93470    0.44850    1.000
    H136     H        0.22620    0.91840    0.47790    1.000
    C174     C        0.22480    0.93160    0.39680    1.000
    C175     C        0.25380    0.95690    0.35570    1.000
    H137     H        0.24060    0.95660    0.31920    1.000
    C176     C        0.30210    0.98250    0.36820    1.000
    H138     H        0.32210    0.99860    0.33910    1.000
    C177     C        0.30230    0.23630    0.30740    1.000
    C178     C        0.17490    0.90080    0.38430    1.000
    N45      N        0.32280    0.98620    0.41830    1.000
    N46      N        0.36520    0.09580    0.38920    1.000
    F27      F        0.36540    0.06370    0.50220    1.000
    F28      F        0.43280    0.96170    0.46840    1.000
    C179     C        0.25620    0.26140    0.32800    1.000
    C180     C        0.14430    0.91500    0.33950    1.000
    H139     H        0.23840    0.24710    0.35930    1.000
    H140     H        0.15420    0.94590    0.31830    1.000
    N47      N        0.32800    0.25620    0.26140    1.000
    N48      N        0.16050    0.85570    0.41500    1.000
    Co15     Co       0.89611    0.47094    0.56681    1.000
    C181     C        0.81340    0.38850    0.60580    1.000
    H141     H        0.79060    0.40900    0.58210    1.000
    C182     C        0.79050    0.34490    0.63260    1.000
    H142     H        0.75270    0.33690    0.62910    1.000
    C183     C        0.82490    0.31230    0.66550    1.000
    C184     C        0.87840    0.32810    0.67090    1.000
    H143     H        0.90250    0.30770    0.69330    1.000
    C185     C        0.89710    0.37390    0.64380    1.000
    H144     H        0.93410    0.38440    0.64860    1.000
    C186     C        0.79350    0.53870    0.54200    1.000
    H145     H        0.80710    0.53770    0.50580    1.000
    C187     C        0.74540    0.56530    0.55150    1.000
    H146     H        0.72620    0.58160    0.52210    1.000
    C188     C        0.72480    0.56840    0.60320    1.000
    C189     C        0.75380    0.54310    0.64430    1.000
    H147     H        0.74060    0.54340    0.68080    1.000
    C190     C        0.80210    0.51750    0.63180    1.000
    H148     H        0.82210    0.50140    0.66090    1.000
    C191     C        0.80230    0.26370    0.69260    1.000
    C192     C        0.67490    0.59920    0.61570    1.000
    N49      N        0.82280    0.51380    0.58170    1.000
    N50      N        0.86520    0.40420    0.61080    1.000
    F29      F        0.86540    0.43630    0.49780    1.000
    F30      F        0.93280    0.53830    0.53160    1.000
    C193     C        0.75620    0.23860    0.67200    1.000
    C194     C        0.64430    0.58500    0.66050    1.000
    H149     H        0.73840    0.25290    0.64070    1.000
    H150     H        0.65420    0.55410    0.68170    1.000
    N51      N        0.82800    0.24380    0.73860    1.000
    N52      N        0.66050    0.64430    0.58500    1.000
    Co16     Co       0.60389    0.52906    0.06681    1.000
    C195     C        0.68660    0.61150    0.10580    1.000
    H151     H        0.70940    0.59100    0.08210    1.000
    C196     C        0.70950    0.65510    0.13260    1.000
    H152     H        0.74730    0.66310    0.12910    1.000
    C197     C        0.67510    0.68770    0.16550    1.000
    C198     C        0.62160    0.67190    0.17090    1.000
    H153     H        0.59750    0.69230    0.19330    1.000
    C199     C        0.60290    0.62610    0.14380    1.000
    H154     H        0.56590    0.61560    0.14860    1.000
    C200     C        0.70650    0.46130    0.04200    1.000
    H155     H        0.69290    0.46230    0.00580    1.000
    C201     C        0.75460    0.43470    0.05150    1.000
    H156     H        0.77380    0.41840    0.02210    1.000
    C202     C        0.77520    0.43160    0.10320    1.000
    C203     C        0.74620    0.45690    0.14430    1.000
    H157     H        0.75940    0.45660    0.18080    1.000
    C204     C        0.69790    0.48250    0.13180    1.000
    H158     H        0.67790    0.49860    0.16090    1.000
    C205     C        0.69770    0.73630    0.19260    1.000
    C206     C        0.82510    0.40080    0.11570    1.000
    N53      N        0.67720    0.48620    0.08170    1.000
    N54      N        0.63480    0.59580    0.11080    1.000
    F31      F        0.63460    0.56370    0.99780    1.000
    F32      F        0.56720    0.46170    0.03160    1.000
    C207     C        0.74380    0.76140    0.17200    1.000
    C208     C        0.85570    0.41500    0.16050    1.000
    H159     H        0.76160    0.74710    0.14070    1.000
    H160     H        0.84580    0.44590    0.18170    1.000
    N55      N        0.67200    0.75620    0.23860    1.000
    N56      N        0.83950    0.35570    0.08500    1.000
    Co17     Co       0.93319    0.10389    0.97094    1.000
    C209     C        0.89420    0.18660    0.88850    1.000
    H161     H        0.91790    0.20940    0.90900    1.000
    C210     C        0.86740    0.20950    0.84490    1.000
    H162     H        0.87090    0.24730    0.83690    1.000
    C211     C        0.83450    0.17510    0.81230    1.000
    C212     C        0.82910    0.12160    0.82810    1.000
    H163     H        0.80670    0.09750    0.80770    1.000
    C213     C        0.85620    0.10290    0.87390    1.000
    H164     H        0.85140    0.06590    0.88440    1.000
    C214     C        0.95800    0.20650    0.03870    1.000
    H165     H        0.99420    0.19290    0.03770    1.000
    C215     C        0.94850    0.25460    0.06530    1.000
    H166     H        0.97790    0.27380    0.08160    1.000
    C216     C        0.89680    0.27520    0.06840    1.000
    C217     C        0.85570    0.24620    0.04310    1.000
    H167     H        0.81920    0.25940    0.04340    1.000
    C218     C        0.86820    0.19790    0.01750    1.000
    H168     H        0.83910    0.17790    0.00140    1.000
    C219     C        0.80740    0.19770    0.76370    1.000
    C220     C        0.88430    0.32510    0.09920    1.000
    N57      N        0.91830    0.17720    0.01380    1.000
    N58      N        0.88920    0.13480    0.90420    1.000
    F33      F        0.00220    0.13460    0.93630    1.000
    F34      F        0.96840    0.06720    0.03830    1.000
    H169     H        0.85930    0.26160    0.75290    1.000
    H170     H        0.81830    0.34580    0.05410    1.000
    N59      N        0.76140    0.17200    0.74380    1.000
    N60      N        0.91500    0.33950    0.14430    1.000
    Co18     Co       0.43319    0.39611    0.02906    1.000
    C221     C        0.39420    0.31340    0.11150    1.000
    H171     H        0.41790    0.29060    0.09100    1.000
    C222     C        0.36740    0.29050    0.15510    1.000
    H172     H        0.37090    0.25270    0.16310    1.000
    C223     C        0.33450    0.32490    0.18770    1.000
    C224     C        0.32910    0.37840    0.17190    1.000
    H173     H        0.30670    0.40250    0.19230    1.000
    C225     C        0.35620    0.39710    0.12610    1.000
    H174     H        0.35140    0.43410    0.11560    1.000
    C226     C        0.45800    0.29350    0.96130    1.000
    H175     H        0.49420    0.30710    0.96230    1.000
    C227     C        0.44850    0.24540    0.93470    1.000
    H176     H        0.47790    0.22620    0.91840    1.000
    C228     C        0.39680    0.22480    0.93160    1.000
    C229     C        0.35570    0.25380    0.95690    1.000
    H177     H        0.31920    0.24060    0.95660    1.000
    C230     C        0.36820    0.30210    0.98250    1.000
    H178     H        0.33910    0.32210    0.99860    1.000
    C231     C        0.30740    0.30230    0.23630    1.000
    C232     C        0.38430    0.17490    0.90080    1.000
    N61      N        0.41830    0.32280    0.98620    1.000
    N62      N        0.38920    0.36520    0.09580    1.000
    F35      F        0.50220    0.36540    0.06370    1.000
    F36      F        0.46840    0.43280    0.96170    1.000
    H179     H        0.35930    0.23840    0.24710    1.000
    H180     H        0.31830    0.15420    0.94590    1.000
    N63      N        0.26140    0.32800    0.25620    1.000
    N64      N        0.41500    0.16050    0.85570    1.000
    Co19     Co       0.56681    0.89611    0.47094    1.000
    C233     C        0.60580    0.81340    0.38850    1.000
    H181     H        0.58210    0.79060    0.40900    1.000
    C234     C        0.63260    0.79050    0.34490    1.000
    H182     H        0.62910    0.75270    0.33690    1.000
    C235     C        0.66550    0.82490    0.31230    1.000
    C236     C        0.67090    0.87840    0.32810    1.000
    H183     H        0.69330    0.90250    0.30770    1.000
    C237     C        0.64380    0.89710    0.37390    1.000
    H184     H        0.64860    0.93410    0.38440    1.000
    C238     C        0.54200    0.79350    0.53870    1.000
    H185     H        0.50580    0.80710    0.53770    1.000
    C239     C        0.55150    0.74540    0.56530    1.000
    H186     H        0.52210    0.72620    0.58160    1.000
    C240     C        0.60320    0.72480    0.56840    1.000
    C241     C        0.64430    0.75380    0.54310    1.000
    H187     H        0.68080    0.74060    0.54340    1.000
    C242     C        0.63180    0.80210    0.51750    1.000
    H188     H        0.66090    0.82210    0.50140    1.000
    C243     C        0.69260    0.80230    0.26370    1.000
    C244     C        0.61570    0.67490    0.59920    1.000
    N65      N        0.58170    0.82280    0.51380    1.000
    N66      N        0.61080    0.86520    0.40420    1.000
    F37      F        0.49780    0.86540    0.43630    1.000
    F38      F        0.53160    0.93280    0.53830    1.000
    H189     H        0.64070    0.73840    0.25290    1.000
    H190     H        0.68170    0.65420    0.55410    1.000
    N67      N        0.73860    0.82800    0.24380    1.000
    N68      N        0.58500    0.66050    0.64430    1.000
    Co20     Co       0.06681    0.60389    0.52906    1.000
    C245     C        0.10580    0.68660    0.61150    1.000
    H191     H        0.08210    0.70940    0.59100    1.000
    C246     C        0.13260    0.70950    0.65510    1.000
    H192     H        0.12910    0.74730    0.66310    1.000
    C247     C        0.16550    0.67510    0.68770    1.000
    C248     C        0.17090    0.62160    0.67190    1.000
    H193     H        0.19330    0.59750    0.69230    1.000
    C249     C        0.14380    0.60290    0.62610    1.000
    H194     H        0.14860    0.56590    0.61560    1.000
    C250     C        0.04200    0.70650    0.46130    1.000
    H195     H        0.00580    0.69290    0.46230    1.000
    C251     C        0.05150    0.75460    0.43470    1.000
    H196     H        0.02210    0.77380    0.41840    1.000
    C252     C        0.10320    0.77520    0.43160    1.000
    C253     C        0.14430    0.74620    0.45690    1.000
    H197     H        0.18080    0.75940    0.45660    1.000
    C254     C        0.13180    0.69790    0.48250    1.000
    H198     H        0.16090    0.67790    0.49860    1.000
    C255     C        0.19260    0.69770    0.73630    1.000
    C256     C        0.11570    0.82510    0.40080    1.000
    N69      N        0.08170    0.67720    0.48620    1.000
    N70      N        0.11080    0.63480    0.59580    1.000
    F39      F        0.99780    0.63460    0.56370    1.000
    F40      F        0.03160    0.56720    0.46170    1.000
    H199     H        0.14070    0.76160    0.74710    1.000
    H200     H        0.18170    0.84580    0.44590    1.000
    N71      N        0.23860    0.67200    0.75620    1.000
    N72      N        0.08500    0.83950    0.35570    1.000
    Co21     Co       0.97094    0.93319    0.10389    1.000
    C257     C        0.88850    0.89420    0.18660    1.000
    H201     H        0.90900    0.91790    0.20940    1.000
    C258     C        0.84490    0.86740    0.20950    1.000
    H202     H        0.83690    0.87090    0.24730    1.000
    C259     C        0.81230    0.83450    0.17510    1.000
    C260     C        0.82810    0.82910    0.12160    1.000
    H203     H        0.80770    0.80670    0.09750    1.000
    C261     C        0.87390    0.85620    0.10290    1.000
    H204     H        0.88440    0.85140    0.06590    1.000
    C262     C        0.03870    0.95800    0.20650    1.000
    H205     H        0.03770    0.99420    0.19290    1.000
    C263     C        0.06530    0.94850    0.25460    1.000
    H206     H        0.08160    0.97790    0.27380    1.000
    C264     C        0.06840    0.89680    0.27520    1.000
    C265     C        0.04310    0.85570    0.24620    1.000
    H207     H        0.04340    0.81920    0.25940    1.000
    C266     C        0.01750    0.86820    0.19790    1.000
    H208     H        0.00140    0.83910    0.17790    1.000
    C267     C        0.76370    0.80740    0.19770    1.000
    C268     C        0.09920    0.88430    0.32510    1.000
    N73      N        0.01380    0.91830    0.17720    1.000
    N74      N        0.90420    0.88920    0.13480    1.000
    F41      F        0.93630    0.00220    0.13460    1.000
    F42      F        0.03830    0.96840    0.06720    1.000
    H209     H        0.75290    0.85930    0.26160    1.000
    H210     H        0.05410    0.81830    0.34580    1.000
    Co22     Co       0.02906    0.43319    0.39611    1.000
    C269     C        0.11150    0.39420    0.31340    1.000
    H211     H        0.09100    0.41790    0.29060    1.000
    C270     C        0.15510    0.36740    0.29050    1.000
    H212     H        0.16310    0.37090    0.25270    1.000
    C271     C        0.18770    0.33450    0.32490    1.000
    C272     C        0.17190    0.32910    0.37840    1.000
    H213     H        0.19230    0.30670    0.40250    1.000
    C273     C        0.12610    0.35620    0.39710    1.000
    H214     H        0.11560    0.35140    0.43410    1.000
    C274     C        0.96130    0.45800    0.29350    1.000
    H215     H        0.96230    0.49420    0.30710    1.000
    C275     C        0.93470    0.44850    0.24540    1.000
    H216     H        0.91840    0.47790    0.22620    1.000
    C276     C        0.93160    0.39680    0.22480    1.000
    C277     C        0.95690    0.35570    0.25380    1.000
    H217     H        0.95660    0.31920    0.24060    1.000
    C278     C        0.98250    0.36820    0.30210    1.000
    H218     H        0.99860    0.33910    0.32210    1.000
    C279     C        0.23630    0.30740    0.30230    1.000
    C280     C        0.90080    0.38430    0.17490    1.000
    N75      N        0.98620    0.41830    0.32280    1.000
    N76      N        0.09580    0.38920    0.36520    1.000
    F43      F        0.06370    0.50220    0.36540    1.000
    F44      F        0.96170    0.46840    0.43280    1.000
    H219     H        0.24710    0.35930    0.23840    1.000
    H220     H        0.94590    0.31830    0.15420    1.000
    Co23     Co       0.47094    0.56681    0.89611    1.000
    C281     C        0.38850    0.60580    0.81340    1.000
    H221     H        0.40900    0.58210    0.79060    1.000
    C282     C        0.34490    0.63260    0.79050    1.000
    H222     H        0.33690    0.62910    0.75270    1.000
    C283     C        0.31230    0.66550    0.82490    1.000
    C284     C        0.32810    0.67090    0.87840    1.000
    H223     H        0.30770    0.69330    0.90250    1.000
    C285     C        0.37390    0.64380    0.89710    1.000
    H224     H        0.38440    0.64860    0.93410    1.000
    C286     C        0.53870    0.54200    0.79350    1.000
    H225     H        0.53770    0.50580    0.80710    1.000
    C287     C        0.56530    0.55150    0.74540    1.000
    H226     H        0.58160    0.52210    0.72620    1.000
    C288     C        0.56840    0.60320    0.72480    1.000
    C289     C        0.54310    0.64430    0.75380    1.000
    H227     H        0.54340    0.68080    0.74060    1.000
    C290     C        0.51750    0.63180    0.80210    1.000
    H228     H        0.50140    0.66090    0.82210    1.000
    C291     C        0.26370    0.69260    0.80230    1.000
    C292     C        0.59920    0.61570    0.67490    1.000
    N77      N        0.51380    0.58170    0.82280    1.000
    N78      N        0.40420    0.61080    0.86520    1.000
    F45      F        0.43630    0.49780    0.86540    1.000
    F46      F        0.53830    0.53160    0.93280    1.000
    H229     H        0.25290    0.64070    0.73840    1.000
    H230     H        0.55410    0.68170    0.65420    1.000
    Co24     Co       0.52906    0.06681    0.60389    1.000
    C293     C        0.61150    0.10580    0.68660    1.000
    H231     H        0.59100    0.08210    0.70940    1.000
    C294     C        0.65510    0.13260    0.70950    1.000
    H232     H        0.66310    0.12910    0.74730    1.000
    C295     C        0.68770    0.16550    0.67510    1.000
    C296     C        0.67190    0.17090    0.62160    1.000
    H233     H        0.69230    0.19330    0.59750    1.000
    C297     C        0.62610    0.14380    0.60290    1.000
    H234     H        0.61560    0.14860    0.56590    1.000
    C298     C        0.46130    0.04200    0.70650    1.000
    H235     H        0.46230    0.00580    0.69290    1.000
    C299     C        0.43470    0.05150    0.75460    1.000
    H236     H        0.41840    0.02210    0.77380    1.000
    C300     C        0.43160    0.10320    0.77520    1.000
    C301     C        0.45690    0.14430    0.74620    1.000
    H237     H        0.45660    0.18080    0.75940    1.000
    C302     C        0.48250    0.13180    0.69790    1.000
    H238     H        0.49860    0.16090    0.67790    1.000
    C303     C        0.73630    0.19260    0.69770    1.000
    C304     C        0.40080    0.11570    0.82510    1.000
    N79      N        0.48620    0.08170    0.67720    1.000
    N80      N        0.59580    0.11080    0.63480    1.000
    F47      F        0.56370    0.99780    0.63460    1.000
    F48      F        0.46170    0.03160    0.56720    1.000
    H239     H        0.74710    0.14070    0.76160    1.000
    H240     H        0.44590    0.18170    0.84580    1.000
    Co25     Co       0.00000    0.00000    0.00000    1.000
    Co26     Co       0.50000    0.00000    0.50000    1.000
    Co27     Co       0.00000    0.50000    0.50000    1.000
    Co28     Co       0.50000    0.50000    0.00000    1.000
