# CIF file generated by openbabel 3.1.0, see https://openbabel.org
data_I
_chemical_name_common 'LODPUR_clean'
_cell_length_a 7.8005
_cell_length_b 11.2947
_cell_length_c 13.1552
_cell_angle_alpha 82.719
_cell_angle_beta 80.499
_cell_angle_gamma 83.194
_space_group_name_H-M_alt 'P 1'
_space_group_name_Hall 'P 1'
loop_
    _symmetry_equiv_pos_as_xyz
    x,y,z
loop_
    _atom_site_label
    _atom_site_type_symbol
    _atom_site_fract_x
    _atom_site_fract_y
    _atom_site_fract_z
    _atom_site_occupancy
    Zn1      Zn       0.71638    0.76470    0.73578    1.000
    Zn2      Zn       0.28362    0.23530    0.26422    1.000
    H1       H        0.75220    0.11460    0.56650    1.000
    H2       H        0.28220    0.52080    0.20970    1.000
    H3       H        0.34400    0.46520    0.66390    1.000
    H4       H        0.52900    0.61400    0.12140    1.000
    H5       H        0.12370    0.90570    0.85540    1.000
    H6       H        0.87630    0.09430    0.14460    1.000
    H7       H        0.52860    0.02090    0.75720    1.000
    H8       H        0.47140    0.97910    0.24280    1.000
    H9       H        0.71780    0.47920    0.79030    1.000
    H10      H        0.62770    0.37860    0.62770    1.000
    H11      H        0.29910    0.98680    0.94790    1.000
    H12      H        0.95610    0.31640    0.09430    1.000
    H13      H        0.78900    0.72240    0.49780    1.000
    H14      H        0.70090    0.01320    0.05210    1.000
    H15      H        0.65200    0.26940    0.12860    1.000
    H16      H        0.42560    0.79330    0.57970    1.000
    H17      H        0.21100    0.27760    0.50220    1.000
    H18      H        0.06060    0.63890    0.41240    1.000
    H19      H        0.10190    0.62680    0.70370    1.000
    H20      H        0.04390    0.68360    0.90570    1.000
    H21      H        0.24780    0.88540    0.43350    1.000
    H22      H        0.57440    0.20670    0.42030    1.000
    H23      H        0.98660    0.08080    0.65450    1.000
    H24      H        0.34800    0.73060    0.87140    1.000
    H25      H        0.23130    0.35280    0.01080    1.000
    H26      H        0.37230    0.62140    0.37230    1.000
    H27      H        0.65600    0.53480    0.33610    1.000
    H28      H        0.89810    0.37320    0.29630    1.000
    H29      H        0.47100    0.38600    0.87860    1.000
    H30      H        0.76870    0.64720    0.98920    1.000
    H31      H        0.01340    0.91920    0.34550    1.000
    H32      H        0.93940    0.36110    0.58760    1.000
    C1       C        0.92630    0.05690    0.08610    1.000
    C2       C        0.67150    0.44580    0.47720    1.000
    C3       C        0.02670    0.60950    0.94360    1.000
    C4       C        0.17870    0.99270    0.96860    1.000
    C5       C        0.40830    0.65560    0.86270    1.000
    C6       C        0.14930    0.61120    0.54930    1.000
    C7       C        0.14780    0.93140    0.46050    1.000
    C8       C        0.89510    0.94850    0.94520    1.000
    C9       C        0.88650    0.69280    0.52870    1.000
    C10      C        0.86120    0.58770    0.99380    1.000
    C11      C        0.85220    0.06860    0.53950    1.000
    C12      C        0.14290    0.97820    0.55380    1.000
    C13      C        0.34190    0.54850    0.89550    1.000
    C14      C        0.85070    0.38880    0.45070    1.000
    C15      C        0.97330    0.39050    0.05640    1.000
    C16      C        0.16840    0.52210    0.94890    1.000
    C17      C        0.13880    0.41230    0.00620    1.000
    C18      C        0.10490    0.05150    0.05480    1.000
    C19      C        0.52410    0.01460    0.28810    1.000
    C20      C        0.94110    0.36000    0.35900    1.000
    C21      C        0.59170    0.34440    0.13730    1.000
    C22      C        0.41880    0.86100    0.61430    1.000
    C23      C        0.99220    0.04810    0.59250    1.000
    C24      C        0.40640    0.48000    0.59770    1.000
    C25      C        0.78050    0.89000    0.88970    1.000
    C26      C        0.61210    0.51830    0.81820    1.000
    C27      C        0.42310    0.57300    0.42420    1.000
    C28      C        0.11350    0.30720    0.47130    1.000
    C29      C        0.83160    0.47790    0.05110    1.000
    C30      C        0.47590    0.98540    0.71190    1.000
    C31      C        0.32850    0.55420    0.52280    1.000
    C32      C        0.29390    0.95550    0.60910    1.000
    C33      C        0.82130    0.00730    0.03140    1.000
    C34      C        0.65810    0.45150    0.10450    1.000
    C35      C        0.59360    0.52000    0.40230    1.000
    C36      C        0.57690    0.42700    0.57580    1.000
    C37      C        0.58120    0.13900    0.38570    1.000
    C38      C        0.07370    0.94310    0.91390    1.000
    C39      C        0.38790    0.48170    0.18180    1.000
    C40      C        0.00780    0.95190    0.40750    1.000
    C41      C        0.70610    0.04450    0.39090    1.000
    C42      C        0.21950    0.11000    0.11030    1.000
    C43      C        0.05890    0.64000    0.64100    1.000
    C44      C        0.85710    0.02180    0.44620    1.000
    N1       N        0.96230    0.35410    0.52220    1.000
    N2       N        0.42090    0.36430    0.18560    1.000
    N3       N        0.52490    0.53770    0.13290    1.000
    N4       N        0.53360    0.88010    0.67800    1.000
    N5       N        0.89380    0.69160    0.62820    1.000
    N6       N        0.33240    0.03450    0.67280    1.000
    N7       N        0.10620    0.30840    0.37180    1.000
    N8       N        0.57910    0.63570    0.81440    1.000
    N9       N        0.47510    0.46230    0.86710    1.000
    N10      N        0.03770    0.64590    0.47780    1.000
    N11      N        0.46640    0.11990    0.32200    1.000
    N12      N        0.66760    0.96550    0.32720    1.000
    O1       O        0.14330    0.15100    0.19466    1.000
    O2       O        0.62580    0.88130    0.92530    1.000
    O3       O        0.85670    0.84900    0.80534    1.000
    O4       O        0.37420    0.11870    0.07470    1.000
