# CIF file generated by openbabel 3.1.0, see https://openbabel.org
data_I
_chemical_name_common 'image0'
_cell_length_a 7.73
_cell_length_b 13.627
_cell_length_c 14.064
_cell_angle_alpha 90
_cell_angle_beta 90
_cell_angle_gamma 90
_space_group_name_H-M_alt 'P 1'
_space_group_name_Hall 'P 1'
loop_
    _symmetry_equiv_pos_as_xyz
    x,y,z
loop_
    _atom_site_label
    _atom_site_type_symbol
    _atom_site_fract_x
    _atom_site_fract_y
    _atom_site_fract_z
    _atom_site_occupancy
    C1       C        0.44160    0.18650    0.26720    1.000
    N1       N        0.54740    0.23250    0.30170    1.000
    C2       C        0.43850    0.00260    0.15870    1.000
    N2       N        0.54700    0.44970    0.36170    1.000
    C3       C        0.55840    0.31350    0.76720    1.000
    N3       N        0.45260    0.26750    0.80170    1.000
    C4       C        0.56150    0.49740    0.65870    1.000
    N4       N        0.45300    0.05030    0.86170    1.000
    C5       C        0.94160    0.81350    0.73280    1.000
    N5       N        0.04740    0.76750    0.69830    1.000
    C6       C        0.93850    0.99740    0.84130    1.000
    N6       N        0.04700    0.55030    0.63830    1.000
    C7       C        0.05840    0.68650    0.23280    1.000
    N7       N        0.95260    0.73250    0.19830    1.000
    C8       C        0.06150    0.50260    0.34130    1.000
    N8       N        0.95300    0.94970    0.13830    1.000
    C9       C        0.55840    0.81350    0.73280    1.000
    N9       N        0.45260    0.76750    0.69830    1.000
    C10      C        0.56150    0.99740    0.84130    1.000
    N10      N        0.45300    0.55030    0.63830    1.000
    C11      C        0.44160    0.68650    0.23280    1.000
    N11      N        0.54740    0.73250    0.19830    1.000
    C12      C        0.43850    0.50260    0.34130    1.000
    N12      N        0.54700    0.94970    0.13830    1.000
    C13      C        0.05840    0.18650    0.26720    1.000
    N13      N        0.95260    0.23250    0.30170    1.000
    C14      C        0.06150    0.00260    0.15870    1.000
    N14      N        0.95300    0.44970    0.36170    1.000
    C15      C        0.94160    0.31350    0.76720    1.000
    N15      N        0.04740    0.26750    0.80170    1.000
    C16      C        0.93850    0.49740    0.65870    1.000
    N16      N        0.04700    0.05030    0.86170    1.000
    Cr1      Cr       0.25000    0.09631    0.20928    1.000
    C17      C        0.25000    0.16700    0.07780    1.000
    C18      C        0.25000    0.01750    0.32940    1.000
    N17      N        0.25000    0.97040    0.39860    1.000
    Cr2      Cr       0.75000    0.40369    0.70928    1.000
    C19      C        0.75000    0.33300    0.57780    1.000
    C20      C        0.75000    0.48250    0.82940    1.000
    N18      N        0.75000    0.52960    0.89860    1.000
    Cr3      Cr       0.75000    0.90369    0.79072    1.000
    C21      C        0.75000    0.83300    0.92220    1.000
    C22      C        0.75000    0.98250    0.67060    1.000
    N19      N        0.75000    0.02960    0.60140    1.000
    Cr4      Cr       0.25000    0.59631    0.29072    1.000
    C23      C        0.25000    0.66700    0.42220    1.000
    C24      C        0.25000    0.51750    0.17060    1.000
    N20      N        0.25000    0.47040    0.10140    1.000
    Mn1      Mn       0.75000    0.33876    0.34484    1.000
    N21      N        0.75000    0.30390    0.50180    1.000
    Mn2      Mn       0.25000    0.16124    0.84484    1.000
    N22      N        0.25000    0.19610    0.00180    1.000
    Mn3      Mn       0.25000    0.66124    0.65516    1.000
    N23      N        0.25000    0.69610    0.49820    1.000
    Mn4      Mn       0.75000    0.83876    0.15516    1.000
    N24      N        0.75000    0.80390    0.99820    1.000
