# CIF file generated by openbabel 3.1.0, see https://openbabel.org
data_I
_chemical_name_common 'image0'
_cell_length_a 12.471
_cell_length_b 13.306
_cell_length_c 15.711
_cell_angle_alpha 90
_cell_angle_beta 90
_cell_angle_gamma 90
_space_group_name_H-M_alt 'P 1'
_space_group_name_Hall 'P 1'
loop_
    _symmetry_equiv_pos_as_xyz
    x,y,z
loop_
    _atom_site_label
    _atom_site_type_symbol
    _atom_site_fract_x
    _atom_site_fract_y
    _atom_site_fract_z
    _atom_site_occupancy
    C1       C        0.96780    0.31970    0.12910    1.000
    C2       C        0.01070    0.38210    0.05820    1.000
    H1       H        0.06740    0.35540    0.02720    1.000
    C3       C        0.97600    0.47180    0.03530    1.000
    H2       H        0.91900    0.50030    0.06490    1.000
    C4       C        0.72600    0.31340    0.40720    1.000
    H3       H        0.76740    0.26540    0.43490    1.000
    C5       C        0.65290    0.36860    0.45360    1.000
    H4       H        0.64450    0.35690    0.51160    1.000
    C6       C        0.59260    0.44110    0.41380    1.000
    C7       C        0.60480    0.45580    0.32940    1.000
    H5       H        0.56450    0.50430    0.30120    1.000
    C8       C        0.67560    0.39970    0.28720    1.000
    H6       H        0.68200    0.41120    0.22900    1.000
    C9       C        0.51370    0.50550    0.46130    1.000
    H7       H        0.48220    0.55810    0.43140    1.000
    N1       N        0.73910    0.32730    0.32140    1.000
    O1       O        0.89240    0.36310    0.17330    1.000
    O2       O        0.99190    0.23240    0.14050    1.000
    C10      C        0.96780    0.18030    0.37090    1.000
    C11      C        0.01070    0.11790    0.44180    1.000
    H8       H        0.06740    0.14460    0.47280    1.000
    C12      C        0.97600    0.02820    0.46470    1.000
    H9       H        0.91900    0.99970    0.43510    1.000
    C13      C        0.72600    0.18660    0.09280    1.000
    H10      H        0.76740    0.23460    0.06510    1.000
    C14      C        0.65290    0.13140    0.04640    1.000
    H11      H        0.64450    0.14310    0.98840    1.000
    C15      C        0.59260    0.05890    0.08620    1.000
    C16      C        0.60480    0.04420    0.17060    1.000
    H12      H        0.56450    0.99570    0.19880    1.000
    C17      C        0.67560    0.10030    0.21280    1.000
    H13      H        0.68200    0.08880    0.27100    1.000
    C18      C        0.51370    0.99450    0.03870    1.000
    H14      H        0.48220    0.94190    0.06860    1.000
    N2       N        0.73910    0.17270    0.17860    1.000
    O3       O        0.89240    0.13690    0.32670    1.000
    O4       O        0.99190    0.26760    0.35950    1.000
    C19      C        0.03220    0.68030    0.87090    1.000
    C20      C        0.98930    0.61790    0.94180    1.000
    H15      H        0.93260    0.64460    0.97280    1.000
    C21      C        0.02400    0.52820    0.96470    1.000
    H16      H        0.08100    0.49970    0.93510    1.000
    C22      C        0.27400    0.68660    0.59280    1.000
    H17      H        0.23260    0.73460    0.56510    1.000
    C23      C        0.34710    0.63140    0.54640    1.000
    H18      H        0.35550    0.64310    0.48840    1.000
    C24      C        0.40740    0.55890    0.58620    1.000
    C25      C        0.39520    0.54420    0.67060    1.000
    H19      H        0.43550    0.49570    0.69880    1.000
    C26      C        0.32440    0.60030    0.71280    1.000
    H20      H        0.31800    0.58880    0.77100    1.000
    C27      C        0.48630    0.49450    0.53870    1.000
    H21      H        0.51780    0.44190    0.56860    1.000
    N3       N        0.26090    0.67270    0.67860    1.000
    O5       O        0.10760    0.63690    0.82670    1.000
    O6       O        0.00810    0.76760    0.85950    1.000
    C28      C        0.03220    0.81970    0.62910    1.000
    C29      C        0.98930    0.88210    0.55820    1.000
    H22      H        0.93260    0.85540    0.52720    1.000
    C30      C        0.02400    0.97180    0.53530    1.000
    H23      H        0.08100    0.00030    0.56490    1.000
    C31      C        0.27400    0.81340    0.90720    1.000
    H24      H        0.23260    0.76540    0.93490    1.000
    C32      C        0.34710    0.86860    0.95360    1.000
    H25      H        0.35550    0.85690    0.01160    1.000
    C33      C        0.40740    0.94110    0.91380    1.000
    C34      C        0.39520    0.95580    0.82940    1.000
    H26      H        0.43550    0.00430    0.80120    1.000
    C35      C        0.32440    0.89970    0.78720    1.000
    H27      H        0.31800    0.91120    0.72900    1.000
    C36      C        0.48630    0.00550    0.96130    1.000
    H28      H        0.51780    0.05810    0.93140    1.000
    N4       N        0.26090    0.82730    0.82140    1.000
    O7       O        0.10760    0.86310    0.67330    1.000
    O8       O        0.00810    0.73240    0.64050    1.000
    Zn1      Zn       0.85009    0.25000    0.25000    1.000
    Zn2      Zn       0.14991    0.75000    0.75000    1.000
    C37      C        0.53220    0.68030    0.12910    1.000
    C38      C        0.48930    0.61790    0.05820    1.000
    H29      H        0.43260    0.64460    0.02720    1.000
    C39      C        0.52400    0.52820    0.03530    1.000
    H30      H        0.58100    0.49970    0.06490    1.000
    C40      C        0.77400    0.68660    0.40720    1.000
    H31      H        0.73260    0.73460    0.43490    1.000
    C41      C        0.84710    0.63140    0.45360    1.000
    H32      H        0.85550    0.64310    0.51160    1.000
    C42      C        0.90740    0.55890    0.41380    1.000
    C43      C        0.89520    0.54420    0.32940    1.000
    H33      H        0.93550    0.49570    0.30120    1.000
    C44      C        0.82440    0.60030    0.28720    1.000
    H34      H        0.81800    0.58880    0.22900    1.000
    C45      C        0.98630    0.49450    0.46130    1.000
    H35      H        0.01780    0.44190    0.43140    1.000
    N5       N        0.76090    0.67270    0.32140    1.000
    O9       O        0.60760    0.63690    0.17330    1.000
    O10      O        0.50810    0.76760    0.14050    1.000
    C46      C        0.53220    0.81970    0.37090    1.000
    C47      C        0.48930    0.88210    0.44180    1.000
    H36      H        0.43260    0.85540    0.47280    1.000
    C48      C        0.52400    0.97180    0.46470    1.000
    H37      H        0.58100    0.00030    0.43510    1.000
    C49      C        0.77400    0.81340    0.09280    1.000
    H38      H        0.73260    0.76540    0.06510    1.000
    C50      C        0.84710    0.86860    0.04640    1.000
    H39      H        0.85550    0.85690    0.98840    1.000
    C51      C        0.90740    0.94110    0.08620    1.000
    C52      C        0.89520    0.95580    0.17060    1.000
    H40      H        0.93550    0.00430    0.19880    1.000
    C53      C        0.82440    0.89970    0.21280    1.000
    H41      H        0.81800    0.91120    0.27100    1.000
    C54      C        0.98630    0.00550    0.03870    1.000
    H42      H        0.01780    0.05810    0.06860    1.000
    N6       N        0.76090    0.82730    0.17860    1.000
    O11      O        0.60760    0.86310    0.32670    1.000
    O12      O        0.50810    0.73240    0.35950    1.000
    C55      C        0.46780    0.31970    0.87090    1.000
    C56      C        0.51070    0.38210    0.94180    1.000
    H43      H        0.56740    0.35540    0.97280    1.000
    C57      C        0.47600    0.47180    0.96470    1.000
    H44      H        0.41900    0.50030    0.93510    1.000
    C58      C        0.22600    0.31340    0.59280    1.000
    H45      H        0.26740    0.26540    0.56510    1.000
    C59      C        0.15290    0.36860    0.54640    1.000
    H46      H        0.14450    0.35690    0.48840    1.000
    C60      C        0.09260    0.44110    0.58620    1.000
    C61      C        0.10480    0.45580    0.67060    1.000
    H47      H        0.06450    0.50430    0.69880    1.000
    C62      C        0.17560    0.39970    0.71280    1.000
    H48      H        0.18200    0.41120    0.77100    1.000
    C63      C        0.01370    0.50550    0.53870    1.000
    H49      H        0.98220    0.55810    0.56860    1.000
    N7       N        0.23910    0.32730    0.67860    1.000
    O13      O        0.39240    0.36310    0.82670    1.000
    O14      O        0.49190    0.23240    0.85950    1.000
    C64      C        0.46780    0.18030    0.62910    1.000
    C65      C        0.51070    0.11790    0.55820    1.000
    H50      H        0.56740    0.14460    0.52720    1.000
    C66      C        0.47600    0.02820    0.53530    1.000
    H51      H        0.41900    0.99970    0.56490    1.000
    C67      C        0.22600    0.18660    0.90720    1.000
    H52      H        0.26740    0.23460    0.93490    1.000
    C68      C        0.15290    0.13140    0.95360    1.000
    H53      H        0.14450    0.14310    0.01160    1.000
    C69      C        0.09260    0.05890    0.91380    1.000
    C70      C        0.10480    0.04420    0.82940    1.000
    H54      H        0.06450    0.99570    0.80120    1.000
    C71      C        0.17560    0.10030    0.78720    1.000
    H55      H        0.18200    0.08880    0.72900    1.000
    C72      C        0.01370    0.99450    0.96130    1.000
    H56      H        0.98220    0.94190    0.93140    1.000
    N8       N        0.23910    0.17270    0.82140    1.000
    O15      O        0.39240    0.13690    0.67330    1.000
    O16      O        0.49190    0.26760    0.64050    1.000
    Zn3      Zn       0.64991    0.75000    0.25000    1.000
    Zn4      Zn       0.35009    0.25000    0.75000    1.000
