# CIF file generated by openbabel 3.1.0, see https://openbabel.org
data_I
_chemical_name_common 'image0'
_cell_length_a 12.366
_cell_length_b 13.439
_cell_length_c 26.969
_cell_angle_alpha 90
_cell_angle_beta 95.463
_cell_angle_gamma 90
_space_group_name_H-M_alt 'P 1'
_space_group_name_Hall 'P 1'
loop_
    _symmetry_equiv_pos_as_xyz
    x,y,z
loop_
    _atom_site_label
    _atom_site_type_symbol
    _atom_site_fract_x
    _atom_site_fract_y
    _atom_site_fract_z
    _atom_site_occupancy
    Zn1      Zn       0.07929    0.93274    0.03004    1.000
    Zn2      Zn       0.10874    0.03650    0.63385    1.000
    Zn3      Zn       0.97224    0.18017    0.71611    1.000
    O1       O        0.13350    0.96310    0.69680    1.000
    O2       O        0.00740    0.04130    0.73570    1.000
    O3       O        0.10010    0.90520    0.95670    1.000
    O4       O        0.17430    0.05680    0.02870    1.000
    O5       O        0.36330    0.70980    0.79380    1.000
    O6       O        0.31090    0.66190    0.86690    1.000
    O7       O        0.41830    0.27300    0.14810    1.000
    O8       O        0.45390    0.42660    0.12110    1.000
    O9       O        0.39630    0.47650    0.93230    1.000
    O10      O        0.23290    0.43710    0.89940    1.000
    O11      O        0.98680    0.00610    0.91190    1.000
    O12      O        0.05750    0.15290    0.98020    1.000
    N1       N        0.99300    0.25370    0.78110    1.000
    N2       N        0.06780    0.33330    0.84590    1.000
    H1       H        0.10780    0.37560    0.86310    1.000
    C1       C        0.22080    0.22310    0.01400    1.000
    C2       C        0.22770    0.29050    0.97600    1.000
    H2       H        0.18310    0.28280    0.94650    1.000
    C3       C        0.29900    0.36870    0.98090    1.000
    C4       C        0.36030    0.38430    0.02610    1.000
    H3       H        0.40740    0.43830    0.02970    1.000
    C5       C        0.35180    0.31990    0.06590    1.000
    C6       C        0.28410    0.23590    0.05940    1.000
    H4       H        0.28140    0.18960    0.08490    1.000
    C7       C        0.14330    0.13750    0.00740    1.000
    C8       C        0.06060    0.94210    0.91640    1.000
    C9       C        0.10580    0.90730    0.87000    1.000
    C10      C        0.18000    0.82880    0.87060    1.000
    H5       H        0.20030    0.79540    0.90020    1.000
    C11      C        0.22350    0.80040    0.82730    1.000
    C12      C        0.19480    0.84930    0.78340    1.000
    H6       H        0.22620    0.83080    0.75470    1.000
    C13      C        0.11890    0.92660    0.78120    1.000
    C14      C        0.07470    0.95470    0.82490    1.000
    H7       H        0.02380    0.00580    0.82390    1.000
    C15      C        0.08440    0.98090    0.73410    1.000
    C16      C        0.30630    0.71850    0.82930    1.000
    C17      C        0.41210    0.33880    0.11480    1.000
    C18      C        0.31140    0.43320    0.93160    1.000
    C19      C        0.06150    0.32310    0.79630    1.000
    H8       H        0.10100    0.36080    0.77540    1.000
    C20      C        0.00080    0.26610    0.86460    1.000
    H9       H        0.98960    0.25680    0.89790    1.000
    C21      C        0.95360    0.21540    0.82490    1.000
    H10      H        0.90360    0.16390    0.82620    1.000
    Zn4      Zn       0.42071    0.43274    0.46996    1.000
    Zn5      Zn       0.39126    0.53650    0.86615    1.000
    Zn6      Zn       0.52776    0.68017    0.78389    1.000
    O13      O        0.36650    0.46310    0.80320    1.000
    O14      O        0.49260    0.54130    0.76430    1.000
    O15      O        0.39990    0.40520    0.54330    1.000
    O16      O        0.32570    0.55680    0.47130    1.000
    O17      O        0.13670    0.20980    0.70620    1.000
    O18      O        0.18910    0.16190    0.63310    1.000
    O19      O        0.08170    0.77300    0.35190    1.000
    O20      O        0.04610    0.92660    0.37890    1.000
    O21      O        0.10370    0.97650    0.56770    1.000
    O22      O        0.26710    0.93710    0.60060    1.000
    O23      O        0.51320    0.50610    0.58810    1.000
    O24      O        0.44250    0.65290    0.51980    1.000
    N3       N        0.50700    0.75370    0.71890    1.000
    N4       N        0.43220    0.83330    0.65410    1.000
    H11      H        0.39220    0.87560    0.63690    1.000
    C22      C        0.27920    0.72310    0.48600    1.000
    C23      C        0.27230    0.79050    0.52400    1.000
    H12      H        0.31690    0.78280    0.55350    1.000
    C24      C        0.20100    0.86870    0.51910    1.000
    C25      C        0.13970    0.88430    0.47390    1.000
    H13      H        0.09260    0.93830    0.47030    1.000
    C26      C        0.14820    0.81990    0.43410    1.000
    C27      C        0.21590    0.73590    0.44060    1.000
    H14      H        0.21860    0.68960    0.41510    1.000
    C28      C        0.35670    0.63750    0.49260    1.000
    C29      C        0.43940    0.44210    0.58360    1.000
    C30      C        0.39420    0.40730    0.63000    1.000
    C31      C        0.32000    0.32880    0.62940    1.000
    H15      H        0.29970    0.29540    0.59980    1.000
    C32      C        0.27650    0.30040    0.67270    1.000
    C33      C        0.30520    0.34930    0.71660    1.000
    H16      H        0.27380    0.33080    0.74530    1.000
    C34      C        0.38110    0.42660    0.71880    1.000
    C35      C        0.42530    0.45470    0.67510    1.000
    H17      H        0.47620    0.50580    0.67610    1.000
    C36      C        0.41560    0.48090    0.76590    1.000
    C37      C        0.19370    0.21850    0.67070    1.000
    C38      C        0.08790    0.83880    0.38520    1.000
    C39      C        0.18860    0.93320    0.56840    1.000
    C40      C        0.43850    0.82310    0.70370    1.000
    H18      H        0.39900    0.86080    0.72460    1.000
    C41      C        0.49920    0.76610    0.63540    1.000
    H19      H        0.51040    0.75680    0.60210    1.000
    C42      C        0.54640    0.71540    0.67510    1.000
    H20      H        0.59640    0.66390    0.67380    1.000
    Zn7      Zn       0.92071    0.06726    0.96996    1.000
    Zn8      Zn       0.89126    0.96350    0.36615    1.000
    Zn9      Zn       0.02776    0.81983    0.28389    1.000
    O25      O        0.86650    0.03690    0.30320    1.000
    O26      O        0.99260    0.95870    0.26430    1.000
    O27      O        0.89990    0.09480    0.04330    1.000
    O28      O        0.82570    0.94320    0.97130    1.000
    O29      O        0.63670    0.29020    0.20620    1.000
    O30      O        0.68910    0.33810    0.13310    1.000
    O31      O        0.58170    0.72700    0.85190    1.000
    O32      O        0.54610    0.57340    0.87890    1.000
    O33      O        0.60370    0.52350    0.06770    1.000
    O34      O        0.76710    0.56290    0.10060    1.000
    O35      O        0.01320    0.99390    0.08810    1.000
    O36      O        0.94250    0.84710    0.01980    1.000
    N5       N        0.00700    0.74630    0.21890    1.000
    N6       N        0.93220    0.66670    0.15410    1.000
    H21      H        0.89220    0.62440    0.13690    1.000
    C43      C        0.77920    0.77690    0.98600    1.000
    C44      C        0.77230    0.70950    0.02400    1.000
    H22      H        0.81690    0.71720    0.05350    1.000
    C45      C        0.70100    0.63130    0.01910    1.000
    C46      C        0.63970    0.61570    0.97390    1.000
    H23      H        0.59260    0.56170    0.97030    1.000
    C47      C        0.64820    0.68010    0.93410    1.000
    C48      C        0.71590    0.76410    0.94060    1.000
    H24      H        0.71860    0.81040    0.91510    1.000
    C49      C        0.85670    0.86250    0.99260    1.000
    C50      C        0.93940    0.05790    0.08360    1.000
    C51      C        0.89420    0.09270    0.13000    1.000
    C52      C        0.82000    0.17120    0.12940    1.000
    H25      H        0.79970    0.20460    0.09980    1.000
    C53      C        0.77650    0.19960    0.17270    1.000
    C54      C        0.80520    0.15070    0.21660    1.000
    H26      H        0.77380    0.16920    0.24530    1.000
    C55      C        0.88110    0.07340    0.21880    1.000
    C56      C        0.92530    0.04530    0.17510    1.000
    H27      H        0.97620    0.99420    0.17610    1.000
    C57      C        0.91560    0.01910    0.26590    1.000
    C58      C        0.69370    0.28150    0.17070    1.000
    C59      C        0.58790    0.66120    0.88520    1.000
    C60      C        0.68860    0.56680    0.06840    1.000
    C61      C        0.93850    0.67690    0.20370    1.000
    H28      H        0.89900    0.63920    0.22460    1.000
    C62      C        0.99920    0.73390    0.13540    1.000
    H29      H        0.01040    0.74320    0.10210    1.000
    C63      C        0.04640    0.78460    0.17510    1.000
    H30      H        0.09640    0.83610    0.17380    1.000
    Zn10     Zn       0.57929    0.56726    0.53004    1.000
    Zn11     Zn       0.60874    0.46350    0.13385    1.000
    Zn12     Zn       0.47224    0.31983    0.21611    1.000
    O37      O        0.63350    0.53690    0.19680    1.000
    O38      O        0.50740    0.45870    0.23570    1.000
    O39      O        0.60010    0.59480    0.45670    1.000
    O40      O        0.67430    0.44320    0.52870    1.000
    O41      O        0.86330    0.79020    0.29380    1.000
    O42      O        0.81090    0.83810    0.36690    1.000
    O43      O        0.91830    0.22700    0.64810    1.000
    O44      O        0.95390    0.07340    0.62110    1.000
    O45      O        0.89630    0.02350    0.43230    1.000
    O46      O        0.73290    0.06290    0.39940    1.000
    O47      O        0.48680    0.49390    0.41190    1.000
    O48      O        0.55750    0.34710    0.48020    1.000
    N7       N        0.49300    0.24630    0.28110    1.000
    N8       N        0.56780    0.16670    0.34590    1.000
    H31      H        0.60780    0.12440    0.36310    1.000
    C64      C        0.72080    0.27690    0.51400    1.000
    C65      C        0.72770    0.20950    0.47600    1.000
    H32      H        0.68310    0.21720    0.44650    1.000
    C66      C        0.79900    0.13130    0.48090    1.000
    C67      C        0.86030    0.11570    0.52610    1.000
    H33      H        0.90740    0.06170    0.52970    1.000
    C68      C        0.85180    0.18010    0.56590    1.000
    C69      C        0.78410    0.26410    0.55940    1.000
    H34      H        0.78140    0.31040    0.58490    1.000
    C70      C        0.64330    0.36250    0.50740    1.000
    C71      C        0.56060    0.55790    0.41640    1.000
    C72      C        0.60580    0.59270    0.37000    1.000
    C73      C        0.68000    0.67120    0.37060    1.000
    H35      H        0.70030    0.70460    0.40020    1.000
    C74      C        0.72350    0.69960    0.32730    1.000
    C75      C        0.69480    0.65070    0.28340    1.000
    H36      H        0.72620    0.66920    0.25470    1.000
    C76      C        0.61890    0.57340    0.28120    1.000
    C77      C        0.57470    0.54530    0.32490    1.000
    H37      H        0.52380    0.49420    0.32390    1.000
    C78      C        0.58440    0.51910    0.23410    1.000
    C79      C        0.80630    0.78150    0.32930    1.000
    C80      C        0.91210    0.16120    0.61480    1.000
    C81      C        0.81140    0.06680    0.43160    1.000
    C82      C        0.56150    0.17690    0.29630    1.000
    H38      H        0.60100    0.13920    0.27540    1.000
    C83      C        0.50080    0.23390    0.36460    1.000
    H39      H        0.48960    0.24320    0.39790    1.000
    C84      C        0.45360    0.28460    0.32490    1.000
    H40      H        0.40360    0.33610    0.32620    1.000
