# CIF file generated by openbabel 3.1.0, see https://openbabel.org
data_I
_chemical_name_common 'UBULIO_clean'
_cell_length_a 41.459
_cell_length_b 41.459
_cell_length_c 17.561
_cell_angle_alpha 90
_cell_angle_beta 90
_cell_angle_gamma 120
_space_group_name_H-M_alt 'P 1'
_space_group_name_Hall 'P 1'
loop_
    _symmetry_equiv_pos_as_xyz
    x,y,z
loop_
    _atom_site_label
    _atom_site_type_symbol
    _atom_site_fract_x
    _atom_site_fract_y
    _atom_site_fract_z
    _atom_site_occupancy
    Zn1      Zn       0.02882    0.62833    0.59764    1.000
    Zn2      Zn       0.06887    0.59144    0.50592    1.000
    Zn3      Zn       0.02897    0.62793    0.41815    1.000
    Zn4      Zn       0.10421    0.67888    0.50904    1.000
    H5       H        0.98280    0.54330    0.75750    1.000
    H6       H        0.96090    0.49580    0.84700    1.000
    H7       H        0.17350    0.59680    0.45950    1.000
    H8       H        0.23260    0.60380    0.46500    1.000
    H9       H        0.27190    0.70470    0.56050    1.000
    H10      H        0.21280    0.69770    0.55510    1.000
    H11      H        0.28230    0.60750    0.50670    1.000
    H12      H        0.15670    0.74950    0.69430    1.000
    H13      H        0.18200    0.78500    0.80320    1.000
    H14      H        0.08230    0.72970    0.90650    1.000
    H15      H        0.05700    0.69420    0.79760    1.000
    H16      H        0.19050    0.82720    0.89640    1.000
    H17      H        0.20640    0.82070    0.12030    1.000
    H18      H        0.11850    0.73660    0.01500    1.000
    H19      H        0.06270    0.69800    0.22890    1.000
    H20      H        0.08860    0.72820    0.11490    1.000
    H21      H        0.19040    0.77760    0.21010    1.000
    H22      H        0.16450    0.74740    0.32420    1.000
    H23      H        0.31320    0.91880    0.11150    1.000
    H24      H        0.25830    0.86180    0.11320    1.000
    H25      H        0.23120    0.88390    0.90770    1.000
    H26      H        0.28610    0.94090    0.90600    1.000
    H27      H        0.06590    0.45450    0.67550    1.000
    H28      H        0.04790    0.39570    0.64350    1.000
    H29      H        0.03330    0.38090    0.72620    1.000
    H30      H        0.04920    0.42740    0.82980    1.000
    H31      H        0.09720    0.48840    0.86610    1.000
    H32      H        0.06280    0.48890    0.83040    1.000
    H33      H        0.09890    0.50150    0.78170    1.000
    H34      H        0.11280    0.44260    0.83900    1.000
    H35      H        0.11720    0.45040    0.75110    1.000
    H36      H        0.09050    0.41000    0.78130    1.000
    C37      C        0.97170    0.43983    0.86501    1.000
    C38      C        0.98720    0.46978    0.80415    1.000
    C39      C        0.01081    0.47125    0.74640    1.000
    C40      C        0.02393    0.49970    0.69274    1.000
    C41      C        0.01344    0.52668    0.69691    1.000
    C42      C        0.98983    0.52521    0.75470    1.000
    C43      C        0.97671    0.49676    0.80832    1.000
    C44      C        0.02578    0.55910    0.64140    1.000
    C45      C        0.14788    0.64081    0.51840    1.000
    C46      C        0.18730    0.64656    0.50680    1.000
    C47      C        0.19323    0.61843    0.47979    1.000
    C48      C        0.22862    0.62260    0.48300    1.000
    C49      C        0.25808    0.65491    0.51330    1.000
    C50      C        0.25215    0.68304    0.54030    1.000
    C51      C        0.21676    0.67887    0.53700    1.000
    C52      C        0.29760    0.66225    0.50480    1.000
    C53      C        0.30298    0.63133    0.50560    1.000
    C54      C        0.09207    0.69669    0.65755    1.000
    C55      C        0.10433    0.71831    0.73514    1.000
    C56      C        0.14177    0.74553    0.73683    1.000
    C57      C        0.15693    0.76681    0.80209    1.000
    C58      C        0.13466    0.76086    0.86566    1.000
    C59      C        0.09722    0.73365    0.86396    1.000
    C60      C        0.08205    0.71237    0.79871    1.000
    C61      C        0.15107    0.77931    0.94482    1.000
    C62      C        0.18299    0.81421    0.94215    1.000
    C63      C        0.20371    0.82971    0.00789    1.000
    C64      C        0.19252    0.81031    0.07630    1.000
    C65      C        0.16060    0.77542    0.07897    1.000
    C66      C        0.13987    0.75992    0.01323    1.000
    C67      C        0.09084    0.69591    0.35370    1.000
    C68      C        0.11105    0.71973    0.28784    1.000
    C69      C        0.08832    0.71397    0.22515    1.000
    C70      C        0.10382    0.73204    0.15683    1.000
    C71      C        0.14205    0.75586    0.15120    1.000
    C72      C        0.16478    0.76162    0.21389    1.000
    C73      C        0.14928    0.74356    0.28222    1.000
    C74      C        0.34314    0.97224    0.01080    1.000
    C75      C        0.30506    0.93550    0.00857    1.000
    C76      C        0.29674    0.91181    0.07063    1.000
    C77      C        0.26388    0.87767    0.07164    1.000
    C78      C        0.23932    0.86720    0.01059    1.000
    C79      C        0.24763    0.89088    0.94853    1.000
    C80      C        0.28050    0.92503    0.94752    1.000
    C81      C        0.04850    0.43700    0.71300    1.000
    C82      C        0.03290    0.39640    0.68510    1.000
    C83      C        0.98720    0.41040    0.67880    1.000
    C84      C        0.06770    0.44420    0.79280    1.000
    C85      C        0.08310    0.48450    0.82030    1.000
    C86      C        0.10010    0.43600    0.79090    1.000
    N87      N        0.01530    0.44080    0.71750    1.000
    O88      O        0.05776    0.63162    0.50952    1.000
    O89      O        0.95283    0.44081    0.91993    1.000
    O90      O        0.97535    0.41206    0.85559    1.000
    O91      O        0.01426    0.58170    0.65080    1.000
    O92      O        0.04898    0.55904    0.59549    1.000
    O93      O        0.14599    0.66959    0.49530    1.000
    O94      O        0.12246    0.60905    0.49780    1.000
    O95      O        0.11046    0.70723    0.59661    1.000
    O96      O        0.06104    0.66839    0.66750    1.000
    O97      O        0.05683    0.67156    0.35580    1.000
    O98      O        0.11414    0.70394    0.40645    1.000
    O99      O        0.35291    0.98781    0.94712    1.000
    O100     O        0.35575    0.98292    0.07670    1.000
    O101     O        0.99550    0.38300    0.66020    1.000
    O102     O        0.95640    0.40640    0.66790    1.000
    H103     H        0.50089    0.45761    0.14534    1.000
    Zn104    Zn       0.37167    0.40049    0.59764    1.000
    Zn105    Zn       0.40856    0.47743    0.50592    1.000
    Zn106    Zn       0.37207    0.40104    0.41815    1.000
    Zn107    Zn       0.32112    0.42533    0.50904    1.000
    H108     H        0.45670    0.43950    0.75750    1.000
    H109     H        0.50420    0.46510    0.84700    1.000
    H110     H        0.40320    0.57670    0.45950    1.000
    H111     H        0.39620    0.62880    0.46500    1.000
    H112     H        0.29530    0.56720    0.56050    1.000
    H113     H        0.30230    0.51510    0.55510    1.000
    H114     H        0.39250    0.67480    0.50670    1.000
    H115     H        0.25050    0.40720    0.69430    1.000
    H116     H        0.21500    0.39700    0.80320    1.000
    H117     H        0.27030    0.35260    0.90650    1.000
    H118     H        0.30580    0.36280    0.79760    1.000
    H119     H        0.17280    0.36330    0.89640    1.000
    H120     H        0.17930    0.38570    0.12030    1.000
    H121     H        0.26340    0.38190    0.01500    1.000
    H122     H        0.30200    0.36470    0.22890    1.000
    H123     H        0.27180    0.36040    0.11490    1.000
    H124     H        0.22240    0.41280    0.21010    1.000
    H125     H        0.25260    0.41710    0.32420    1.000
    H126     H        0.08120    0.39440    0.11150    1.000
    H127     H        0.13820    0.39650    0.11320    1.000
    H128     H        0.11610    0.34730    0.90770    1.000
    H129     H        0.05910    0.34520    0.90600    1.000
    H130     H        0.54550    0.61140    0.67550    1.000
    H131     H        0.60430    0.65220    0.64350    1.000
    H132     H        0.61910    0.65240    0.72620    1.000
    H133     H        0.57260    0.62180    0.82980    1.000
    H134     H        0.51160    0.60880    0.86610    1.000
    H135     H        0.51110    0.57390    0.83040    1.000
    H136     H        0.49850    0.59740    0.78170    1.000
    H137     H        0.55740    0.67020    0.83900    1.000
    H138     H        0.54960    0.66680    0.75110    1.000
    H139     H        0.59000    0.68050    0.78130    1.000
    C140     C        0.56017    0.53187    0.86501    1.000
    C141     C        0.53022    0.51742    0.80415    1.000
    C142     C        0.52875    0.53956    0.74640    1.000
    C143     C        0.50030    0.52423    0.69274    1.000
    C144     C        0.47332    0.48676    0.69691    1.000
    C145     C        0.47479    0.46462    0.75470    1.000
    C146     C        0.50324    0.47995    0.80832    1.000
    C147     C        0.44090    0.46668    0.64140    1.000
    C148     C        0.35919    0.50707    0.51840    1.000
    C149     C        0.35344    0.54074    0.50680    1.000
    C150     C        0.38157    0.57480    0.47979    1.000
    C151     C        0.37740    0.60602    0.48300    1.000
    C152     C        0.34509    0.60317    0.51330    1.000
    C153     C        0.31696    0.56911    0.54030    1.000
    C154     C        0.32113    0.53789    0.53700    1.000
    C155     C        0.33775    0.63535    0.50480    1.000
    C156     C        0.36867    0.67165    0.50560    1.000
    C157     C        0.30331    0.39538    0.65755    1.000
    C158     C        0.28169    0.38602    0.73514    1.000
    C159     C        0.25447    0.39624    0.73683    1.000
    C160     C        0.23319    0.39012    0.80209    1.000
    C161     C        0.23914    0.37380    0.86566    1.000
    C162     C        0.26635    0.36357    0.86396    1.000
    C163     C        0.28763    0.36968    0.79871    1.000
    C164     C        0.22069    0.37176    0.94482    1.000
    C165     C        0.18579    0.36878    0.94215    1.000
    C166     C        0.17029    0.37400    0.00789    1.000
    C167     C        0.18969    0.38221    0.07630    1.000
    C168     C        0.22458    0.38518    0.07897    1.000
    C169     C        0.24008    0.37995    0.01323    1.000
    C170     C        0.30409    0.39493    0.35370    1.000
    C171     C        0.28027    0.39132    0.28784    1.000
    C172     C        0.28603    0.37435    0.22515    1.000
    C173     C        0.26796    0.37178    0.15683    1.000
    C174     C        0.24414    0.38619    0.15120    1.000
    C175     C        0.23838    0.40316    0.21389    1.000
    C176     C        0.25644    0.40572    0.28222    1.000
    C177     C        0.02776    0.37090    0.01080    1.000
    C178     C        0.06450    0.36956    0.00857    1.000
    C179     C        0.08819    0.38493    0.07063    1.000
    C180     C        0.12233    0.38621    0.07164    1.000
    C181     C        0.13280    0.37212    0.01059    1.000
    C182     C        0.10912    0.35675    0.94853    1.000
    C183     C        0.07497    0.35547    0.94752    1.000
    C184     C        0.56300    0.61150    0.71300    1.000
    C185     C        0.60360    0.63650    0.68510    1.000
    C186     C        0.58960    0.57680    0.67880    1.000
    C187     C        0.55580    0.62350    0.79280    1.000
    C188     C        0.51550    0.59860    0.82030    1.000
    C189     C        0.56400    0.66410    0.79090    1.000
    N190     N        0.55920    0.57450    0.71750    1.000
    O191     O        0.36838    0.42614    0.50952    1.000
    O192     O        0.55919    0.51202    0.91993    1.000
    O193     O        0.58794    0.56329    0.85559    1.000
    O194     O        0.41830    0.43256    0.65080    1.000
    O195     O        0.44096    0.48994    0.59549    1.000
    O196     O        0.33041    0.47640    0.49530    1.000
    O197     O        0.39095    0.51341    0.49780    1.000
    O198     O        0.29277    0.40323    0.59661    1.000
    O199     O        0.33161    0.39265    0.66750    1.000
    O200     O        0.32844    0.38527    0.35580    1.000
    O201     O        0.29606    0.41020    0.40645    1.000
    O202     O        0.01219    0.36510    0.94712    1.000
    O203     O        0.01708    0.37283    0.07670    1.000
    O204     O        0.61700    0.61250    0.66020    1.000
    O205     O        0.59360    0.55000    0.66790    1.000
    H206     H        0.54239    0.04329    0.14534    1.000
    Zn207    Zn       0.59951    0.97118    0.59764    1.000
    Zn208    Zn       0.52257    0.93113    0.50592    1.000
    Zn209    Zn       0.59896    0.97103    0.41815    1.000
    Zn210    Zn       0.57467    0.89579    0.50904    1.000
    H211     H        0.56050    0.01720    0.75750    1.000
    H212     H        0.53490    0.03910    0.84700    1.000
    H213     H        0.42330    0.82650    0.45950    1.000
    H214     H        0.37120    0.76740    0.46500    1.000
    H215     H        0.43280    0.72810    0.56050    1.000
    H216     H        0.48490    0.78720    0.55510    1.000
    H217     H        0.32520    0.71770    0.50670    1.000
    H218     H        0.59280    0.84330    0.69430    1.000
    H219     H        0.60300    0.81800    0.80320    1.000
    H220     H        0.64740    0.91770    0.90650    1.000
    H221     H        0.63720    0.94300    0.79760    1.000
    H222     H        0.63670    0.80950    0.89640    1.000
    H223     H        0.61430    0.79360    0.12030    1.000
    H224     H        0.61810    0.88150    0.01500    1.000
    H225     H        0.63530    0.93730    0.22890    1.000
    H226     H        0.63960    0.91140    0.11490    1.000
    H227     H        0.58720    0.80960    0.21010    1.000
    H228     H        0.58290    0.83550    0.32420    1.000
    H229     H        0.60560    0.68680    0.11150    1.000
    H230     H        0.60350    0.74170    0.11320    1.000
    H231     H        0.65270    0.76880    0.90770    1.000
    H232     H        0.65480    0.71390    0.90600    1.000
    H233     H        0.38860    0.93410    0.67550    1.000
    H234     H        0.34780    0.95210    0.64350    1.000
    H235     H        0.34760    0.96670    0.72620    1.000
    H236     H        0.37820    0.95080    0.82980    1.000
    H237     H        0.39120    0.90280    0.86610    1.000
    H238     H        0.42610    0.93720    0.83040    1.000
    H239     H        0.40260    0.90110    0.78170    1.000
    H240     H        0.32980    0.88720    0.83900    1.000
    H241     H        0.33320    0.88280    0.75110    1.000
    H242     H        0.31950    0.90950    0.78130    1.000
    C243     C        0.46813    0.02830    0.86501    1.000
    C244     C        0.48258    0.01280    0.80415    1.000
    C245     C        0.46044    0.98919    0.74640    1.000
    C246     C        0.47577    0.97607    0.69274    1.000
    C247     C        0.51324    0.98656    0.69691    1.000
    C248     C        0.53538    0.01017    0.75470    1.000
    C249     C        0.52005    0.02329    0.80832    1.000
    C250     C        0.53332    0.97422    0.64140    1.000
    C251     C        0.49293    0.85212    0.51840    1.000
    C252     C        0.45926    0.81270    0.50680    1.000
    C253     C        0.42520    0.80677    0.47979    1.000
    C254     C        0.39398    0.77138    0.48300    1.000
    C255     C        0.39683    0.74192    0.51330    1.000
    C256     C        0.43089    0.74785    0.54030    1.000
    C257     C        0.46211    0.78324    0.53700    1.000
    C258     C        0.36465    0.70240    0.50480    1.000
    C259     C        0.32835    0.69702    0.50560    1.000
    C260     C        0.60462    0.90793    0.65755    1.000
    C261     C        0.61398    0.89567    0.73514    1.000
    C262     C        0.60376    0.85823    0.73683    1.000
    C263     C        0.60988    0.84307    0.80209    1.000
    C264     C        0.62620    0.86534    0.86566    1.000
    C265     C        0.63643    0.90278    0.86396    1.000
    C266     C        0.63032    0.91795    0.79871    1.000
    C267     C        0.62824    0.84893    0.94482    1.000
    C268     C        0.63122    0.81701    0.94215    1.000
    C269     C        0.62600    0.79629    0.00789    1.000
    C270     C        0.61779    0.80748    0.07630    1.000
    C271     C        0.61482    0.83940    0.07897    1.000
    C272     C        0.62005    0.86013    0.01323    1.000
    C273     C        0.60507    0.90916    0.35370    1.000
    C274     C        0.60868    0.88895    0.28784    1.000
    C275     C        0.62565    0.91168    0.22515    1.000
    C276     C        0.62822    0.89618    0.15683    1.000
    C277     C        0.61381    0.85795    0.15120    1.000
    C278     C        0.59684    0.83522    0.21389    1.000
    C279     C        0.59428    0.85072    0.28222    1.000
    C280     C        0.62910    0.65686    0.01080    1.000
    C281     C        0.63044    0.69494    0.00857    1.000
    C282     C        0.61507    0.70326    0.07063    1.000
    C283     C        0.61379    0.73612    0.07164    1.000
    C284     C        0.62788    0.76068    0.01059    1.000
    C285     C        0.64325    0.75237    0.94853    1.000
    C286     C        0.64453    0.71950    0.94752    1.000
    C287     C        0.38850    0.95150    0.71300    1.000
    C288     C        0.36350    0.96710    0.68510    1.000
    C289     C        0.42320    0.01280    0.67880    1.000
    C290     C        0.37650    0.93230    0.79280    1.000
    C291     C        0.40140    0.91690    0.82030    1.000
    C292     C        0.33590    0.89990    0.79090    1.000
    N293     N        0.42550    0.98470    0.71750    1.000
    O294     O        0.57386    0.94224    0.50952    1.000
    O295     O        0.48798    0.04717    0.91993    1.000
    O296     O        0.43671    0.02465    0.85559    1.000
    O297     O        0.56744    0.98574    0.65080    1.000
    O298     O        0.51006    0.95102    0.59549    1.000
    O299     O        0.52360    0.85401    0.49530    1.000
    O300     O        0.48659    0.87754    0.49780    1.000
    O301     O        0.59677    0.88954    0.59661    1.000
    O302     O        0.60735    0.93896    0.66750    1.000
    O303     O        0.61473    0.94317    0.35580    1.000
    O304     O        0.58980    0.88586    0.40645    1.000
    O305     O        0.63490    0.64709    0.94712    1.000
    O306     O        0.62717    0.64425    0.07670    1.000
    O307     O        0.38750    0.00450    0.66020    1.000
    O308     O        0.45000    0.04360    0.66790    1.000
    H309     H        0.95671    0.49911    0.14534    1.000
    Zn310    Zn       0.97118    0.37167    0.09764    1.000
    Zn311    Zn       0.93113    0.40856    0.00592    1.000
    Zn312    Zn       0.97103    0.37207    0.91815    1.000
    Zn313    Zn       0.89579    0.32112    0.00904    1.000
    H314     H        0.01720    0.45670    0.25750    1.000
    H315     H        0.03910    0.50420    0.34700    1.000
    H316     H        0.82650    0.40320    0.95950    1.000
    H317     H        0.76740    0.39620    0.96500    1.000
    H318     H        0.72810    0.29530    0.06050    1.000
    H319     H        0.78720    0.30230    0.05510    1.000
    H320     H        0.71770    0.39250    0.00670    1.000
    H321     H        0.84330    0.25050    0.19430    1.000
    H322     H        0.81800    0.21500    0.30320    1.000
    H323     H        0.91770    0.27030    0.40650    1.000
    H324     H        0.94300    0.30580    0.29760    1.000
    H325     H        0.80950    0.17280    0.39640    1.000
    H326     H        0.79360    0.17930    0.62030    1.000
    H327     H        0.88150    0.26340    0.51500    1.000
    H328     H        0.93730    0.30200    0.72890    1.000
    H329     H        0.91140    0.27180    0.61490    1.000
    H330     H        0.80960    0.22240    0.71010    1.000
    H331     H        0.83550    0.25260    0.82420    1.000
    H332     H        0.68680    0.08120    0.61150    1.000
    H333     H        0.74170    0.13820    0.61320    1.000
    H334     H        0.76880    0.11610    0.40770    1.000
    H335     H        0.71390    0.05910    0.40600    1.000
    H336     H        0.93410    0.54550    0.17550    1.000
    H337     H        0.95210    0.60430    0.14350    1.000
    H338     H        0.96670    0.61910    0.22620    1.000
    H339     H        0.95080    0.57260    0.32980    1.000
    H340     H        0.90280    0.51160    0.36610    1.000
    H341     H        0.93720    0.51110    0.33040    1.000
    H342     H        0.90110    0.49850    0.28170    1.000
    H343     H        0.88720    0.55740    0.33900    1.000
    H344     H        0.88280    0.54960    0.25110    1.000
    H345     H        0.90950    0.59000    0.28130    1.000
    C346     C        0.02830    0.56017    0.36501    1.000
    C347     C        0.01280    0.53022    0.30415    1.000
    C348     C        0.98919    0.52875    0.24640    1.000
    C349     C        0.97607    0.50030    0.19274    1.000
    C350     C        0.98656    0.47332    0.19691    1.000
    C351     C        0.01017    0.47479    0.25470    1.000
    C352     C        0.02329    0.50324    0.30832    1.000
    C353     C        0.97422    0.44090    0.14140    1.000
    C354     C        0.85212    0.35919    0.01840    1.000
    C355     C        0.81270    0.35344    0.00680    1.000
    C356     C        0.80677    0.38157    0.97979    1.000
    C357     C        0.77138    0.37740    0.98300    1.000
    C358     C        0.74192    0.34509    0.01330    1.000
    C359     C        0.74785    0.31696    0.04030    1.000
    C360     C        0.78324    0.32113    0.03700    1.000
    C361     C        0.70240    0.33775    0.00480    1.000
    C362     C        0.69702    0.36867    0.00560    1.000
    C363     C        0.90793    0.30331    0.15755    1.000
    C364     C        0.89567    0.28169    0.23514    1.000
    C365     C        0.85823    0.25447    0.23683    1.000
    C366     C        0.84307    0.23319    0.30209    1.000
    C367     C        0.86534    0.23914    0.36566    1.000
    C368     C        0.90278    0.26635    0.36396    1.000
    C369     C        0.91795    0.28763    0.29871    1.000
    C370     C        0.84893    0.22069    0.44482    1.000
    C371     C        0.81701    0.18579    0.44215    1.000
    C372     C        0.79629    0.17029    0.50789    1.000
    C373     C        0.80748    0.18969    0.57630    1.000
    C374     C        0.83940    0.22458    0.57897    1.000
    C375     C        0.86013    0.24008    0.51323    1.000
    C376     C        0.90916    0.30409    0.85370    1.000
    C377     C        0.88895    0.28027    0.78784    1.000
    C378     C        0.91168    0.28603    0.72515    1.000
    C379     C        0.89618    0.26796    0.65683    1.000
    C380     C        0.85795    0.24414    0.65120    1.000
    C381     C        0.83522    0.23838    0.71389    1.000
    C382     C        0.85072    0.25644    0.78222    1.000
    C383     C        0.65686    0.02776    0.51080    1.000
    C384     C        0.69494    0.06450    0.50857    1.000
    C385     C        0.70326    0.08819    0.57063    1.000
    C386     C        0.73612    0.12233    0.57164    1.000
    C387     C        0.76068    0.13280    0.51059    1.000
    C388     C        0.75237    0.10912    0.44853    1.000
    C389     C        0.71950    0.07497    0.44752    1.000
    C390     C        0.95150    0.56300    0.21300    1.000
    C391     C        0.96710    0.60360    0.18510    1.000
    C392     C        0.01280    0.58960    0.17880    1.000
    C393     C        0.93230    0.55580    0.29280    1.000
    C394     C        0.91690    0.51550    0.32030    1.000
    C395     C        0.89990    0.56400    0.29090    1.000
    N396     N        0.98470    0.55920    0.21750    1.000
    O397     O        0.94224    0.36838    0.00952    1.000
    O398     O        0.04717    0.55919    0.41993    1.000
    O399     O        0.02465    0.58794    0.35559    1.000
    O400     O        0.98574    0.41830    0.15080    1.000
    O401     O        0.95102    0.44096    0.09549    1.000
    O402     O        0.85401    0.33041    0.99530    1.000
    O403     O        0.87754    0.39095    0.99780    1.000
    O404     O        0.88954    0.29277    0.09661    1.000
    O405     O        0.93896    0.33161    0.16750    1.000
    O406     O        0.94317    0.32844    0.85580    1.000
    O407     O        0.88586    0.29606    0.90645    1.000
    O408     O        0.64709    0.01219    0.44712    1.000
    O409     O        0.64425    0.01708    0.57670    1.000
    O410     O        0.00450    0.61700    0.16020    1.000
    O411     O        0.04360    0.59360    0.16790    1.000
    H412     H        0.49911    0.54239    0.64534    1.000
    Zn413    Zn       0.62833    0.59951    0.09764    1.000
    Zn414    Zn       0.59144    0.52257    0.00592    1.000
    Zn415    Zn       0.62793    0.59896    0.91815    1.000
    Zn416    Zn       0.67888    0.57467    0.00904    1.000
    H417     H        0.54330    0.56050    0.25750    1.000
    H418     H        0.49580    0.53490    0.34700    1.000
    H419     H        0.59680    0.42330    0.95950    1.000
    H420     H        0.60380    0.37120    0.96500    1.000
    H421     H        0.70470    0.43280    0.06050    1.000
    H422     H        0.69770    0.48490    0.05510    1.000
    H423     H        0.60750    0.32520    0.00670    1.000
    H424     H        0.74950    0.59280    0.19430    1.000
    H425     H        0.78500    0.60300    0.30320    1.000
    H426     H        0.72970    0.64740    0.40650    1.000
    H427     H        0.69420    0.63720    0.29760    1.000
    H428     H        0.82720    0.63670    0.39640    1.000
    H429     H        0.82070    0.61430    0.62030    1.000
    H430     H        0.73660    0.61810    0.51500    1.000
    H431     H        0.69800    0.63530    0.72890    1.000
    H432     H        0.72820    0.63960    0.61490    1.000
    H433     H        0.77760    0.58720    0.71010    1.000
    H434     H        0.74740    0.58290    0.82420    1.000
    H435     H        0.91880    0.60560    0.61150    1.000
    H436     H        0.86180    0.60350    0.61320    1.000
    H437     H        0.88390    0.65270    0.40770    1.000
    H438     H        0.94090    0.65480    0.40600    1.000
    H439     H        0.45450    0.38860    0.17550    1.000
    H440     H        0.39570    0.34780    0.14350    1.000
    H441     H        0.38090    0.34760    0.22620    1.000
    H442     H        0.42740    0.37820    0.32980    1.000
    H443     H        0.48840    0.39120    0.36610    1.000
    H444     H        0.48890    0.42610    0.33040    1.000
    H445     H        0.50150    0.40260    0.28170    1.000
    H446     H        0.44260    0.32980    0.33900    1.000
    H447     H        0.45040    0.33320    0.25110    1.000
    H448     H        0.41000    0.31950    0.28130    1.000
    C449     C        0.43983    0.46813    0.36501    1.000
    C450     C        0.46978    0.48258    0.30415    1.000
    C451     C        0.47125    0.46044    0.24640    1.000
    C452     C        0.49970    0.47577    0.19274    1.000
    C453     C        0.52668    0.51324    0.19691    1.000
    C454     C        0.52521    0.53538    0.25470    1.000
    C455     C        0.49676    0.52005    0.30832    1.000
    C456     C        0.55910    0.53332    0.14140    1.000
    C457     C        0.64081    0.49293    0.01840    1.000
    C458     C        0.64656    0.45926    0.00680    1.000
    C459     C        0.61843    0.42520    0.97979    1.000
    C460     C        0.62260    0.39398    0.98300    1.000
    C461     C        0.65491    0.39683    0.01330    1.000
    C462     C        0.68304    0.43089    0.04030    1.000
    C463     C        0.67887    0.46211    0.03700    1.000
    C464     C        0.66225    0.36465    0.00480    1.000
    C465     C        0.63133    0.32835    0.00560    1.000
    C466     C        0.69669    0.60462    0.15755    1.000
    C467     C        0.71831    0.61398    0.23514    1.000
    C468     C        0.74553    0.60376    0.23683    1.000
    C469     C        0.76681    0.60988    0.30209    1.000
    C470     C        0.76086    0.62620    0.36566    1.000
    C471     C        0.73365    0.63643    0.36396    1.000
    C472     C        0.71237    0.63032    0.29871    1.000
    C473     C        0.77931    0.62824    0.44482    1.000
    C474     C        0.81421    0.63122    0.44215    1.000
    C475     C        0.82971    0.62600    0.50789    1.000
    C476     C        0.81031    0.61779    0.57630    1.000
    C477     C        0.77542    0.61482    0.57897    1.000
    C478     C        0.75992    0.62005    0.51323    1.000
    C479     C        0.69591    0.60507    0.85370    1.000
    C480     C        0.71973    0.60868    0.78784    1.000
    C481     C        0.71397    0.62565    0.72515    1.000
    C482     C        0.73204    0.62822    0.65683    1.000
    C483     C        0.75586    0.61381    0.65120    1.000
    C484     C        0.76162    0.59684    0.71389    1.000
    C485     C        0.74356    0.59428    0.78222    1.000
    C486     C        0.97224    0.62910    0.51080    1.000
    C487     C        0.93550    0.63044    0.50857    1.000
    C488     C        0.91181    0.61507    0.57063    1.000
    C489     C        0.87767    0.61379    0.57164    1.000
    C490     C        0.86720    0.62788    0.51059    1.000
    C491     C        0.89088    0.64325    0.44853    1.000
    C492     C        0.92503    0.64453    0.44752    1.000
    C493     C        0.43700    0.38850    0.21300    1.000
    C494     C        0.39640    0.36350    0.18510    1.000
    C495     C        0.41040    0.42320    0.17880    1.000
    C496     C        0.44420    0.37650    0.29280    1.000
    C497     C        0.48450    0.40140    0.32030    1.000
    C498     C        0.43600    0.33590    0.29090    1.000
    N499     N        0.44080    0.42550    0.21750    1.000
    O500     O        0.63162    0.57386    0.00952    1.000
    O501     O        0.44081    0.48798    0.41993    1.000
    O502     O        0.41206    0.43671    0.35559    1.000
    O503     O        0.58170    0.56744    0.15080    1.000
    O504     O        0.55904    0.51006    0.09549    1.000
    O505     O        0.66959    0.52360    0.99530    1.000
    O506     O        0.60905    0.48659    0.99780    1.000
    O507     O        0.70723    0.59677    0.09661    1.000
    O508     O        0.66839    0.60735    0.16750    1.000
    O509     O        0.67156    0.61473    0.85580    1.000
    O510     O        0.70394    0.58980    0.90645    1.000
    O511     O        0.98781    0.63490    0.44712    1.000
    O512     O        0.98292    0.62717    0.57670    1.000
    O513     O        0.38300    0.38750    0.16020    1.000
    O514     O        0.40640    0.45000    0.16790    1.000
    H515     H        0.45761    0.95671    0.64534    1.000
    Zn516    Zn       0.40049    0.02882    0.09764    1.000
    Zn517    Zn       0.47743    0.06887    0.00592    1.000
    Zn518    Zn       0.40104    0.02897    0.91815    1.000
    Zn519    Zn       0.42533    0.10421    0.00904    1.000
    H520     H        0.43950    0.98280    0.25750    1.000
    H521     H        0.46510    0.96090    0.34700    1.000
    H522     H        0.57670    0.17350    0.95950    1.000
    H523     H        0.62880    0.23260    0.96500    1.000
    H524     H        0.56720    0.27190    0.06050    1.000
    H525     H        0.51510    0.21280    0.05510    1.000
    H526     H        0.67480    0.28230    0.00670    1.000
    H527     H        0.40720    0.15670    0.19430    1.000
    H528     H        0.39700    0.18200    0.30320    1.000
    H529     H        0.35260    0.08230    0.40650    1.000
    H530     H        0.36280    0.05700    0.29760    1.000
    H531     H        0.36330    0.19050    0.39640    1.000
    H532     H        0.38570    0.20640    0.62030    1.000
    H533     H        0.38190    0.11850    0.51500    1.000
    H534     H        0.36470    0.06270    0.72890    1.000
    H535     H        0.36040    0.08860    0.61490    1.000
    H536     H        0.41280    0.19040    0.71010    1.000
    H537     H        0.41710    0.16450    0.82420    1.000
    H538     H        0.39440    0.31320    0.61150    1.000
    H539     H        0.39650    0.25830    0.61320    1.000
    H540     H        0.34730    0.23120    0.40770    1.000
    H541     H        0.34520    0.28610    0.40600    1.000
    H542     H        0.61140    0.06590    0.17550    1.000
    H543     H        0.65220    0.04790    0.14350    1.000
    H544     H        0.65240    0.03330    0.22620    1.000
    H545     H        0.62180    0.04920    0.32980    1.000
    H546     H        0.60880    0.09720    0.36610    1.000
    H547     H        0.57390    0.06280    0.33040    1.000
    H548     H        0.59740    0.09890    0.28170    1.000
    H549     H        0.67020    0.11280    0.33900    1.000
    H550     H        0.66680    0.11720    0.25110    1.000
    H551     H        0.68050    0.09050    0.28130    1.000
    C552     C        0.53187    0.97170    0.36501    1.000
    C553     C        0.51742    0.98720    0.30415    1.000
    C554     C        0.53956    0.01081    0.24640    1.000
    C555     C        0.52423    0.02393    0.19274    1.000
    C556     C        0.48676    0.01344    0.19691    1.000
    C557     C        0.46462    0.98983    0.25470    1.000
    C558     C        0.47995    0.97671    0.30832    1.000
    C559     C        0.46668    0.02578    0.14140    1.000
    C560     C        0.50707    0.14788    0.01840    1.000
    C561     C        0.54074    0.18730    0.00680    1.000
    C562     C        0.57480    0.19323    0.97979    1.000
    C563     C        0.60602    0.22862    0.98300    1.000
    C564     C        0.60317    0.25808    0.01330    1.000
    C565     C        0.56911    0.25215    0.04030    1.000
    C566     C        0.53789    0.21676    0.03700    1.000
    C567     C        0.63535    0.29760    0.00480    1.000
    C568     C        0.67165    0.30298    0.00560    1.000
    C569     C        0.39538    0.09207    0.15755    1.000
    C570     C        0.38602    0.10433    0.23514    1.000
    C571     C        0.39624    0.14177    0.23683    1.000
    C572     C        0.39012    0.15693    0.30209    1.000
    C573     C        0.37380    0.13466    0.36566    1.000
    C574     C        0.36357    0.09722    0.36396    1.000
    C575     C        0.36968    0.08205    0.29871    1.000
    C576     C        0.37176    0.15107    0.44482    1.000
    C577     C        0.36878    0.18299    0.44215    1.000
    C578     C        0.37400    0.20371    0.50789    1.000
    C579     C        0.38221    0.19252    0.57630    1.000
    C580     C        0.38518    0.16060    0.57897    1.000
    C581     C        0.37995    0.13987    0.51323    1.000
    C582     C        0.39493    0.09084    0.85370    1.000
    C583     C        0.39132    0.11105    0.78784    1.000
    C584     C        0.37435    0.08832    0.72515    1.000
    C585     C        0.37178    0.10382    0.65683    1.000
    C586     C        0.38619    0.14205    0.65120    1.000
    C587     C        0.40316    0.16478    0.71389    1.000
    C588     C        0.40572    0.14928    0.78222    1.000
    C589     C        0.37090    0.34314    0.51080    1.000
    C590     C        0.36956    0.30506    0.50857    1.000
    C591     C        0.38493    0.29674    0.57063    1.000
    C592     C        0.38621    0.26388    0.57164    1.000
    C593     C        0.37212    0.23932    0.51059    1.000
    C594     C        0.35675    0.24763    0.44853    1.000
    C595     C        0.35547    0.28050    0.44752    1.000
    C596     C        0.61150    0.04850    0.21300    1.000
    C597     C        0.63650    0.03290    0.18510    1.000
    C598     C        0.57680    0.98720    0.17880    1.000
    C599     C        0.62350    0.06770    0.29280    1.000
    C600     C        0.59860    0.08310    0.32030    1.000
    C601     C        0.66410    0.10010    0.29090    1.000
    N602     N        0.57450    0.01530    0.21750    1.000
    O603     O        0.42614    0.05776    0.00952    1.000
    O604     O        0.51202    0.95283    0.41993    1.000
    O605     O        0.56329    0.97535    0.35559    1.000
    O606     O        0.43256    0.01426    0.15080    1.000
    O607     O        0.48994    0.04898    0.09549    1.000
    O608     O        0.47640    0.14599    0.99530    1.000
    O609     O        0.51341    0.12246    0.99780    1.000
    O610     O        0.40323    0.11046    0.09661    1.000
    O611     O        0.39265    0.06104    0.16750    1.000
    O612     O        0.38527    0.05683    0.85580    1.000
    O613     O        0.41020    0.11414    0.90645    1.000
    O614     O        0.36510    0.35291    0.44712    1.000
    O615     O        0.37283    0.35575    0.57670    1.000
    O616     O        0.61250    0.99550    0.16020    1.000
    O617     O        0.55000    0.95640    0.16790    1.000
    H618     H        0.04329    0.50089    0.64534    1.000
