# CIF file generated by openbabel 3.1.0, see https://openbabel.org
data_I
_chemical_name_common 'image0'
_cell_length_a 9.434
_cell_length_b 16.599
_cell_length_c 18.562
_cell_angle_alpha 90
_cell_angle_beta 97.731
_cell_angle_gamma 90
_space_group_name_H-M_alt 'P 1'
_space_group_name_Hall 'P 1'
loop_
    _symmetry_equiv_pos_as_xyz
    x,y,z
loop_
    _atom_site_label
    _atom_site_type_symbol
    _atom_site_fract_x
    _atom_site_fract_y
    _atom_site_fract_z
    _atom_site_occupancy
    Zn1      Zn       0.33820    0.03687    0.98321    1.000
    C1       C        0.45960    0.10640    0.12490    1.000
    H1       H        0.55320    0.08180    0.12620    1.000
    H2       H        0.44870    0.12390    0.17370    1.000
    C2       C        0.44740    0.17780    0.07410    1.000
    H3       H        0.35540    0.20360    0.07480    1.000
    H4       H        0.52140    0.21660    0.09080    1.000
    C3       C        0.42360    0.22010    0.94700    1.000
    H5       H        0.32560    0.23620    0.94950    1.000
    H6       H        0.42860    0.20030    0.89820    1.000
    C4       C        0.52030    0.29400    0.96060    1.000
    C5       C        0.47980    0.36290    0.99050    1.000
    H7       H        0.39010    0.36620    0.00580    1.000
    C6       C        0.57090    0.42930    0.99860    1.000
    H8       H        0.53880    0.47630    0.01850    1.000
    C7       C        0.65590    0.29340    0.93940    1.000
    H9       H        0.68970    0.24760    0.91840    1.000
    C8       C        0.73960    0.36120    0.94980    1.000
    H10      H        0.83000    0.35940    0.93510    1.000
    C9       C        0.36880    0.96950    0.13860    1.000
    H11      H        0.46130    0.94810    0.13090    1.000
    H12      H        0.29650    0.93180    0.11740    1.000
    C10      C        0.36320    0.97350    0.21950    1.000
    C11      C        0.47690    0.94780    0.26790    1.000
    H13      H        0.56020    0.93000    0.25130    1.000
    C12      C        0.46680    0.94860    0.34110    1.000
    H14      H        0.54610    0.93220    0.37300    1.000
    C13      C        0.24480    0.99830    0.24790    1.000
    H15      H        0.16590    0.01740    0.21710    1.000
    C14      C        0.24080    0.99540    0.32180    1.000
    H16      H        0.15720    0.01100    0.33940    1.000
    N1       N        0.34680    0.04660    0.09931    1.000
    H17      H        0.26170    0.06710    0.10860    1.000
    N2       N        0.46170    0.15344    0.99941    1.000
    H18      H        0.55550    0.14150    0.99820    1.000
    N3       N        0.35050    0.97140    0.36880    1.000
    N4       N        0.70110    0.42870    0.97926    1.000
    Zn2      Zn       0.83820    0.53687    0.98321    1.000
    C15      C        0.95960    0.60640    0.12490    1.000
    H19      H        0.05320    0.58180    0.12620    1.000
    H20      H        0.94870    0.62390    0.17370    1.000
    C16      C        0.94740    0.67780    0.07410    1.000
    H21      H        0.85540    0.70360    0.07480    1.000
    H22      H        0.02140    0.71660    0.09080    1.000
    C17      C        0.92360    0.72010    0.94700    1.000
    H23      H        0.82560    0.73620    0.94950    1.000
    H24      H        0.92860    0.70030    0.89820    1.000
    C18      C        0.02030    0.79400    0.96060    1.000
    C19      C        0.97980    0.86290    0.99050    1.000
    H25      H        0.89010    0.86620    0.00580    1.000
    C20      C        0.07090    0.92930    0.99860    1.000
    H26      H        0.03880    0.97630    0.01850    1.000
    C21      C        0.15590    0.79340    0.93940    1.000
    H27      H        0.18970    0.74760    0.91840    1.000
    C22      C        0.23960    0.86120    0.94980    1.000
    H28      H        0.33000    0.85940    0.93510    1.000
    C23      C        0.86880    0.46950    0.13860    1.000
    H29      H        0.96130    0.44810    0.13090    1.000
    H30      H        0.79650    0.43180    0.11740    1.000
    C24      C        0.86320    0.47350    0.21950    1.000
    C25      C        0.97690    0.44780    0.26790    1.000
    H31      H        0.06020    0.43000    0.25130    1.000
    C26      C        0.96680    0.44860    0.34110    1.000
    H32      H        0.04610    0.43220    0.37300    1.000
    C27      C        0.74480    0.49830    0.24790    1.000
    H33      H        0.66590    0.51740    0.21710    1.000
    C28      C        0.74080    0.49540    0.32180    1.000
    H34      H        0.65720    0.51100    0.33940    1.000
    N5       N        0.84680    0.54660    0.09931    1.000
    H35      H        0.76170    0.56710    0.10860    1.000
    N6       N        0.96170    0.65344    0.99941    1.000
    H36      H        0.05550    0.64150    0.99820    1.000
    N7       N        0.85050    0.47140    0.36880    1.000
    N8       N        0.20110    0.92870    0.97926    1.000
    Zn3      Zn       0.33820    0.96313    0.48321    1.000
    C29      C        0.45960    0.89360    0.62490    1.000
    H37      H        0.55320    0.91820    0.62620    1.000
    H38      H        0.44870    0.87610    0.67370    1.000
    C30      C        0.44740    0.82220    0.57410    1.000
    H39      H        0.35540    0.79640    0.57480    1.000
    H40      H        0.52140    0.78340    0.59080    1.000
    C31      C        0.42360    0.77990    0.44700    1.000
    H41      H        0.32560    0.76380    0.44950    1.000
    H42      H        0.42860    0.79970    0.39820    1.000
    C32      C        0.52030    0.70600    0.46060    1.000
    C33      C        0.47980    0.63710    0.49050    1.000
    H43      H        0.39010    0.63380    0.50580    1.000
    C34      C        0.57090    0.57070    0.49860    1.000
    H44      H        0.53880    0.52370    0.51850    1.000
    C35      C        0.65590    0.70660    0.43940    1.000
    H45      H        0.68970    0.75240    0.41840    1.000
    C36      C        0.73960    0.63880    0.44980    1.000
    H46      H        0.83000    0.64060    0.43510    1.000
    C37      C        0.36880    0.03050    0.63860    1.000
    H47      H        0.46130    0.05190    0.63090    1.000
    H48      H        0.29650    0.06820    0.61740    1.000
    C38      C        0.36320    0.02650    0.71950    1.000
    C39      C        0.47690    0.05220    0.76790    1.000
    H49      H        0.56020    0.07000    0.75130    1.000
    C40      C        0.46680    0.05140    0.84110    1.000
    H50      H        0.54610    0.06780    0.87300    1.000
    C41      C        0.24480    0.00170    0.74790    1.000
    H51      H        0.16590    0.98260    0.71710    1.000
    C42      C        0.24080    0.00460    0.82180    1.000
    H52      H        0.15720    0.98900    0.83940    1.000
    N9       N        0.34680    0.95340    0.59931    1.000
    H53      H        0.26170    0.93290    0.60860    1.000
    N10      N        0.46170    0.84656    0.49941    1.000
    H54      H        0.55550    0.85850    0.49820    1.000
    N11      N        0.35050    0.02860    0.86880    1.000
    N12      N        0.70110    0.57130    0.47926    1.000
    Zn4      Zn       0.83820    0.46313    0.48321    1.000
    C43      C        0.95960    0.39360    0.62490    1.000
    H55      H        0.05320    0.41820    0.62620    1.000
    H56      H        0.94870    0.37610    0.67370    1.000
    C44      C        0.94740    0.32220    0.57410    1.000
    H57      H        0.85540    0.29640    0.57480    1.000
    H58      H        0.02140    0.28340    0.59080    1.000
    C45      C        0.92360    0.27990    0.44700    1.000
    H59      H        0.82560    0.26380    0.44950    1.000
    H60      H        0.92860    0.29970    0.39820    1.000
    C46      C        0.02030    0.20600    0.46060    1.000
    C47      C        0.97980    0.13710    0.49050    1.000
    H61      H        0.89010    0.13380    0.50580    1.000
    C48      C        0.07090    0.07070    0.49860    1.000
    H62      H        0.03880    0.02370    0.51850    1.000
    C49      C        0.15590    0.20660    0.43940    1.000
    H63      H        0.18970    0.25240    0.41840    1.000
    C50      C        0.23960    0.13880    0.44980    1.000
    H64      H        0.33000    0.14060    0.43510    1.000
    C51      C        0.86880    0.53050    0.63860    1.000
    H65      H        0.96130    0.55190    0.63090    1.000
    H66      H        0.79650    0.56820    0.61740    1.000
    C52      C        0.86320    0.52650    0.71950    1.000
    C53      C        0.97690    0.55220    0.76790    1.000
    H67      H        0.06020    0.57000    0.75130    1.000
    C54      C        0.96680    0.55140    0.84110    1.000
    H68      H        0.04610    0.56780    0.87300    1.000
    C55      C        0.74480    0.50170    0.74790    1.000
    H69      H        0.66590    0.48260    0.71710    1.000
    C56      C        0.74080    0.50460    0.82180    1.000
    H70      H        0.65720    0.48900    0.83940    1.000
    N13      N        0.84680    0.45340    0.59931    1.000
    H71      H        0.76170    0.43290    0.60860    1.000
    N14      N        0.96170    0.34656    0.49941    1.000
    H72      H        0.05550    0.35850    0.49820    1.000
    N15      N        0.85050    0.52860    0.86880    1.000
    N16      N        0.20110    0.07130    0.47926    1.000
