# CIF file generated by openbabel 3.1.0, see https://openbabel.org
data_I
_chemical_name_common 'image0'
_cell_length_a 28.8533
_cell_length_b 14.4038
_cell_length_c 13.7414
_cell_angle_alpha 90
_cell_angle_beta 98.666
_cell_angle_gamma 90
_space_group_name_H-M_alt 'P 1'
_space_group_name_Hall 'P 1'
loop_
    _symmetry_equiv_pos_as_xyz
    x,y,z
loop_
    _atom_site_label
    _atom_site_type_symbol
    _atom_site_fract_x
    _atom_site_fract_y
    _atom_site_fract_z
    _atom_site_occupancy
    Tb1      Tb       0.31708    0.29329    0.53688    1.000
    C1       C        0.70690    0.10420    0.23610    1.000
    C2       C        0.73460    0.03790    0.29040    1.000
    H1       H        0.76600    0.03150    0.28300    1.000
    C3       C        0.71557    0.98130    0.35550    1.000
    C4       C        0.66891    0.99180    0.36860    1.000
    H2       H        0.65640    0.95310    0.41230    1.000
    C5       C        0.64053    0.06000    0.31670    1.000
    C6       C        0.66053    0.11490    0.24950    1.000
    H3       H        0.64220    0.15960    0.21300    1.000
    C7       C        0.72618    0.16380    0.16040    1.000
    C8       C        0.74579    0.90960    0.41370    1.000
    C9       C        0.59268    0.07820    0.33810    1.000
    C10      C        0.56365    0.00530    0.36110    1.000
    H4       H        0.57420    0.94440    0.36010    1.000
    C11      C        0.52010    0.02330    0.38470    1.000
    H5       H        0.50110    0.97390    0.39720    1.000
    C12      C        0.50317    0.11510    0.39070    1.000
    C13      C        0.46053    0.13570    0.42460    1.000
    H6       H        0.44150    0.08750    0.44040    1.000
    C14      C        0.44686    0.22570    0.43450    1.000
    C15      C        0.47470    0.29880    0.40760    1.000
    H7       H        0.46480    0.35990    0.41220    1.000
    C16      C        0.51640    0.28080    0.37470    1.000
    H8       H        0.53450    0.32960    0.35710    1.000
    C17      C        0.53190    0.18810    0.36720    1.000
    C18      C        0.57613    0.16720    0.33970    1.000
    H9       H        0.59450    0.21550    0.32210    1.000
    C19      C        0.40250    0.24770    0.47480    1.000
    O1       O        0.69975    0.22600    0.12030    1.000
    O2       O        0.76719    0.14790    0.14620    1.000
    O3       O        0.78901    0.92260    0.43230    1.000
    O4       O        0.72680    0.83840    0.44460    1.000
    O5       O        0.38655    0.32930    0.46590    1.000
    O6       O        0.38259    0.18590    0.51720    1.000
    Tb2      Tb       0.81708    0.79329    0.53688    1.000
    C20      C        0.20690    0.60420    0.23610    1.000
    C21      C        0.23460    0.53790    0.29040    1.000
    H10      H        0.26600    0.53150    0.28300    1.000
    C22      C        0.21557    0.48130    0.35550    1.000
    C23      C        0.16891    0.49180    0.36860    1.000
    H11      H        0.15640    0.45310    0.41230    1.000
    C24      C        0.14053    0.56000    0.31670    1.000
    C25      C        0.16053    0.61490    0.24950    1.000
    H12      H        0.14220    0.65960    0.21300    1.000
    C26      C        0.22618    0.66380    0.16040    1.000
    C27      C        0.24579    0.40960    0.41370    1.000
    C28      C        0.09268    0.57820    0.33810    1.000
    C29      C        0.06365    0.50530    0.36110    1.000
    H13      H        0.07420    0.44440    0.36010    1.000
    C30      C        0.02010    0.52330    0.38470    1.000
    H14      H        0.00110    0.47390    0.39720    1.000
    C31      C        0.00317    0.61510    0.39070    1.000
    C32      C        0.96053    0.63570    0.42460    1.000
    H15      H        0.94150    0.58750    0.44040    1.000
    C33      C        0.94686    0.72570    0.43450    1.000
    C34      C        0.97470    0.79880    0.40760    1.000
    H16      H        0.96480    0.85990    0.41220    1.000
    C35      C        0.01640    0.78080    0.37470    1.000
    H17      H        0.03450    0.82960    0.35710    1.000
    C36      C        0.03190    0.68810    0.36720    1.000
    C37      C        0.07613    0.66720    0.33970    1.000
    H18      H        0.09450    0.71550    0.32210    1.000
    C38      C        0.90250    0.74770    0.47480    1.000
    O7       O        0.19975    0.72600    0.12030    1.000
    O8       O        0.26719    0.64790    0.14620    1.000
    O9       O        0.28901    0.42260    0.43230    1.000
    O10      O        0.22680    0.33840    0.44460    1.000
    O11      O        0.88655    0.82930    0.46590    1.000
    O12      O        0.88259    0.68590    0.51720    1.000
    Tb3      Tb       0.68292    0.29329    0.96312    1.000
    C39      C        0.29310    0.10420    0.26390    1.000
    C40      C        0.26540    0.03790    0.20960    1.000
    H19      H        0.23400    0.03150    0.21700    1.000
    C41      C        0.28443    0.98130    0.14450    1.000
    C42      C        0.33109    0.99180    0.13140    1.000
    H20      H        0.34360    0.95310    0.08770    1.000
    C43      C        0.35947    0.06000    0.18330    1.000
    C44      C        0.33947    0.11490    0.25050    1.000
    H21      H        0.35780    0.15960    0.28700    1.000
    C45      C        0.27382    0.16380    0.33960    1.000
    C46      C        0.25421    0.90960    0.08630    1.000
    C47      C        0.40732    0.07820    0.16190    1.000
    C48      C        0.43635    0.00530    0.13890    1.000
    H22      H        0.42580    0.94440    0.13990    1.000
    C49      C        0.47990    0.02330    0.11530    1.000
    H23      H        0.49890    0.97390    0.10280    1.000
    C50      C        0.49683    0.11510    0.10930    1.000
    C51      C        0.53947    0.13570    0.07540    1.000
    H24      H        0.55850    0.08750    0.05960    1.000
    C52      C        0.55314    0.22570    0.06550    1.000
    C53      C        0.52530    0.29880    0.09240    1.000
    H25      H        0.53520    0.35990    0.08780    1.000
    C54      C        0.48360    0.28080    0.12530    1.000
    H26      H        0.46550    0.32960    0.14290    1.000
    C55      C        0.46810    0.18810    0.13280    1.000
    C56      C        0.42387    0.16720    0.16030    1.000
    H27      H        0.40550    0.21550    0.17790    1.000
    C57      C        0.59750    0.24770    0.02520    1.000
    O13      O        0.30025    0.22600    0.37970    1.000
    O14      O        0.23281    0.14790    0.35380    1.000
    O15      O        0.21099    0.92260    0.06770    1.000
    O16      O        0.27320    0.83840    0.05540    1.000
    O17      O        0.61345    0.32930    0.03410    1.000
    O18      O        0.61741    0.18590    0.98280    1.000
    Tb4      Tb       0.18292    0.79329    0.96312    1.000
    C58      C        0.79310    0.60420    0.26390    1.000
    C59      C        0.76540    0.53790    0.20960    1.000
    H28      H        0.73400    0.53150    0.21700    1.000
    C60      C        0.78443    0.48130    0.14450    1.000
    C61      C        0.83109    0.49180    0.13140    1.000
    H29      H        0.84360    0.45310    0.08770    1.000
    C62      C        0.85947    0.56000    0.18330    1.000
    C63      C        0.83947    0.61490    0.25050    1.000
    H30      H        0.85780    0.65960    0.28700    1.000
    C64      C        0.77382    0.66380    0.33960    1.000
    C65      C        0.75421    0.40960    0.08630    1.000
    C66      C        0.90732    0.57820    0.16190    1.000
    C67      C        0.93635    0.50530    0.13890    1.000
    H31      H        0.92580    0.44440    0.13990    1.000
    C68      C        0.97990    0.52330    0.11530    1.000
    H32      H        0.99890    0.47390    0.10280    1.000
    C69      C        0.99683    0.61510    0.10930    1.000
    C70      C        0.03947    0.63570    0.07540    1.000
    H33      H        0.05850    0.58750    0.05960    1.000
    C71      C        0.05314    0.72570    0.06550    1.000
    C72      C        0.02530    0.79880    0.09240    1.000
    H34      H        0.03520    0.85990    0.08780    1.000
    C73      C        0.98360    0.78080    0.12530    1.000
    H35      H        0.96550    0.82960    0.14290    1.000
    C74      C        0.96810    0.68810    0.13280    1.000
    C75      C        0.92387    0.66720    0.16030    1.000
    H36      H        0.90550    0.71550    0.17790    1.000
    C76      C        0.09750    0.74770    0.02520    1.000
    O19      O        0.80025    0.72600    0.37970    1.000
    O20      O        0.73281    0.64790    0.35380    1.000
    O21      O        0.71099    0.42260    0.06770    1.000
    O22      O        0.77320    0.33840    0.05540    1.000
    O23      O        0.11345    0.82930    0.03410    1.000
    O24      O        0.11741    0.68590    0.98280    1.000
    Tb5      Tb       0.68292    0.70671    0.46312    1.000
    C77      C        0.29310    0.89580    0.76390    1.000
    C78      C        0.26540    0.96210    0.70960    1.000
    H37      H        0.23400    0.96850    0.71700    1.000
    C79      C        0.28443    0.01870    0.64450    1.000
    C80      C        0.33109    0.00820    0.63140    1.000
    H38      H        0.34360    0.04690    0.58770    1.000
    C81      C        0.35947    0.94000    0.68330    1.000
    C82      C        0.33947    0.88510    0.75050    1.000
    H39      H        0.35780    0.84040    0.78700    1.000
    C83      C        0.27382    0.83620    0.83960    1.000
    C84      C        0.25421    0.09040    0.58630    1.000
    C85      C        0.40732    0.92180    0.66190    1.000
    C86      C        0.43635    0.99470    0.63890    1.000
    H40      H        0.42580    0.05560    0.63990    1.000
    C87      C        0.47990    0.97670    0.61530    1.000
    H41      H        0.49890    0.02610    0.60280    1.000
    C88      C        0.49683    0.88490    0.60930    1.000
    C89      C        0.53947    0.86430    0.57540    1.000
    H42      H        0.55850    0.91250    0.55960    1.000
    C90      C        0.55314    0.77430    0.56550    1.000
    C91      C        0.52530    0.70120    0.59240    1.000
    H43      H        0.53520    0.64010    0.58780    1.000
    C92      C        0.48360    0.71920    0.62530    1.000
    H44      H        0.46550    0.67040    0.64290    1.000
    C93      C        0.46810    0.81190    0.63280    1.000
    C94      C        0.42387    0.83280    0.66030    1.000
    H45      H        0.40550    0.78450    0.67790    1.000
    C95      C        0.59750    0.75230    0.52520    1.000
    O25      O        0.30025    0.77400    0.87970    1.000
    O26      O        0.23281    0.85210    0.85380    1.000
    O27      O        0.21099    0.07740    0.56770    1.000
    O28      O        0.27320    0.16160    0.55540    1.000
    O29      O        0.61345    0.67070    0.53410    1.000
    O30      O        0.61741    0.81410    0.48280    1.000
    Tb6      Tb       0.18292    0.20671    0.46312    1.000
    C96      C        0.79310    0.39580    0.76390    1.000
    C97      C        0.76540    0.46210    0.70960    1.000
    H46      H        0.73400    0.46850    0.71700    1.000
    C98      C        0.78443    0.51870    0.64450    1.000
    C99      C        0.83109    0.50820    0.63140    1.000
    H47      H        0.84360    0.54690    0.58770    1.000
    C100     C        0.85947    0.44000    0.68330    1.000
    C101     C        0.83947    0.38510    0.75050    1.000
    H48      H        0.85780    0.34040    0.78700    1.000
    C102     C        0.77382    0.33620    0.83960    1.000
    C103     C        0.75421    0.59040    0.58630    1.000
    C104     C        0.90732    0.42180    0.66190    1.000
    C105     C        0.93635    0.49470    0.63890    1.000
    H49      H        0.92580    0.55560    0.63990    1.000
    C106     C        0.97990    0.47670    0.61530    1.000
    H50      H        0.99890    0.52610    0.60280    1.000
    C107     C        0.99683    0.38490    0.60930    1.000
    C108     C        0.03947    0.36430    0.57540    1.000
    H51      H        0.05850    0.41250    0.55960    1.000
    C109     C        0.05314    0.27430    0.56550    1.000
    C110     C        0.02530    0.20120    0.59240    1.000
    H52      H        0.03520    0.14010    0.58780    1.000
    C111     C        0.98360    0.21920    0.62530    1.000
    H53      H        0.96550    0.17040    0.64290    1.000
    C112     C        0.96810    0.31190    0.63280    1.000
    C113     C        0.92387    0.33280    0.66030    1.000
    H54      H        0.90550    0.28450    0.67790    1.000
    C114     C        0.09750    0.25230    0.52520    1.000
    O31      O        0.80025    0.27400    0.87970    1.000
    O32      O        0.73281    0.35210    0.85380    1.000
    O33      O        0.71099    0.57740    0.56770    1.000
    O34      O        0.77320    0.66160    0.55540    1.000
    O35      O        0.11345    0.17070    0.53410    1.000
    O36      O        0.11741    0.31410    0.48280    1.000
    Tb7      Tb       0.31708    0.70671    0.03688    1.000
    C115     C        0.70690    0.89580    0.73610    1.000
    C116     C        0.73460    0.96210    0.79040    1.000
    H55      H        0.76600    0.96850    0.78300    1.000
    C117     C        0.71557    0.01870    0.85550    1.000
    C118     C        0.66891    0.00820    0.86860    1.000
    H56      H        0.65640    0.04690    0.91230    1.000
    C119     C        0.64053    0.94000    0.81670    1.000
    C120     C        0.66053    0.88510    0.74950    1.000
    H57      H        0.64220    0.84040    0.71300    1.000
    C121     C        0.72618    0.83620    0.66040    1.000
    C122     C        0.74579    0.09040    0.91370    1.000
    C123     C        0.59268    0.92180    0.83810    1.000
    C124     C        0.56365    0.99470    0.86110    1.000
    H58      H        0.57420    0.05560    0.86010    1.000
    C125     C        0.52010    0.97670    0.88470    1.000
    H59      H        0.50110    0.02610    0.89720    1.000
    C126     C        0.50317    0.88490    0.89070    1.000
    C127     C        0.46053    0.86430    0.92460    1.000
    H60      H        0.44150    0.91250    0.94040    1.000
    C128     C        0.44686    0.77430    0.93450    1.000
    C129     C        0.47470    0.70120    0.90760    1.000
    H61      H        0.46480    0.64010    0.91220    1.000
    C130     C        0.51640    0.71920    0.87470    1.000
    H62      H        0.53450    0.67040    0.85710    1.000
    C131     C        0.53190    0.81190    0.86720    1.000
    C132     C        0.57613    0.83280    0.83970    1.000
    H63      H        0.59450    0.78450    0.82210    1.000
    C133     C        0.40250    0.75230    0.97480    1.000
    O37      O        0.69975    0.77400    0.62030    1.000
    O38      O        0.76719    0.85210    0.64620    1.000
    O39      O        0.78901    0.07740    0.93230    1.000
    O40      O        0.72680    0.16160    0.94460    1.000
    O41      O        0.38655    0.67070    0.96590    1.000
    O42      O        0.38259    0.81410    0.01720    1.000
    Tb8      Tb       0.81708    0.20671    0.03688    1.000
    C134     C        0.20690    0.39580    0.73610    1.000
    C135     C        0.23460    0.46210    0.79040    1.000
    H64      H        0.26600    0.46850    0.78300    1.000
    C136     C        0.21557    0.51870    0.85550    1.000
    C137     C        0.16891    0.50820    0.86860    1.000
    H65      H        0.15640    0.54690    0.91230    1.000
    C138     C        0.14053    0.44000    0.81670    1.000
    C139     C        0.16053    0.38510    0.74950    1.000
    H66      H        0.14220    0.34040    0.71300    1.000
    C140     C        0.22618    0.33620    0.66040    1.000
    C141     C        0.24579    0.59040    0.91370    1.000
    C142     C        0.09268    0.42180    0.83810    1.000
    C143     C        0.06365    0.49470    0.86110    1.000
    H67      H        0.07420    0.55560    0.86010    1.000
    C144     C        0.02010    0.47670    0.88470    1.000
    H68      H        0.00110    0.52610    0.89720    1.000
    C145     C        0.00317    0.38490    0.89070    1.000
    C146     C        0.96053    0.36430    0.92460    1.000
    H69      H        0.94150    0.41250    0.94040    1.000
    C147     C        0.94686    0.27430    0.93450    1.000
    C148     C        0.97470    0.20120    0.90760    1.000
    H70      H        0.96480    0.14010    0.91220    1.000
    C149     C        0.01640    0.21920    0.87470    1.000
    H71      H        0.03450    0.17040    0.85710    1.000
    C150     C        0.03190    0.31190    0.86720    1.000
    C151     C        0.07613    0.33280    0.83970    1.000
    H72      H        0.09450    0.28450    0.82210    1.000
    C152     C        0.90250    0.25230    0.97480    1.000
    O43      O        0.19975    0.27400    0.62030    1.000
    O44      O        0.26719    0.35210    0.64620    1.000
    O45      O        0.28901    0.57740    0.93230    1.000
    O46      O        0.22680    0.66160    0.94460    1.000
    O47      O        0.88655    0.17070    0.96590    1.000
    O48      O        0.88259    0.31410    0.01720    1.000
