# CIF file generated by openbabel 3.1.0, see https://openbabel.org
data_I
_chemical_name_common 'ja5b02897_si_003_clean'
_cell_length_a 7.1874
_cell_length_b 16.086
_cell_length_c 16.086
_cell_angle_alpha 62.178
_cell_angle_beta 81.4346
_cell_angle_gamma 98.5654
_space_group_name_H-M_alt 'P 1'
_space_group_name_Hall 'P 1'
loop_
    _symmetry_equiv_pos_as_xyz
    x,y,z
loop_
    _atom_site_label
    _atom_site_type_symbol
    _atom_site_fract_x
    _atom_site_fract_y
    _atom_site_fract_z
    _atom_site_occupancy
    Fe1      Fe       0.42258    0.41087    0.33158    1.000
    Fe2      Fe       0.75416    0.33158    0.25755    1.000
    Fe3      Fe       0.24584    0.66842    0.74245    1.000
    Fe4      Fe       0.01171    0.25755    0.41087    1.000
    Fe5      Fe       0.98829    0.74245    0.58913    1.000
    Fe6      Fe       0.57742    0.58913    0.66842    1.000
    H1       H        0.73540    0.54500    0.44340    1.000
    H2       H        0.82120    0.55660    0.98840    1.000
    H3       H        0.80960    0.98840    0.45500    1.000
    H4       H        0.26460    0.45500    0.55660    1.000
    H5       H        0.17880    0.44340    0.01160    1.000
    H6       H        0.19040    0.01160    0.54500    1.000
    C1       C        0.80040    0.59860    0.81760    1.000
    C2       C        0.09190    0.54610    0.54560    1.000
    C3       C        0.31150    0.46700    0.00670    1.000
    C4       C        0.56070    0.48870    0.08430    1.000
    C5       C        0.64500    0.08430    0.42700    1.000
    C6       C        0.19960    0.40140    0.18240    1.000
    C7       C        0.43930    0.51130    0.91570    1.000
    C8       C        0.84450    0.52630    0.46700    1.000
    C9       C        0.45420    0.09170    0.45390    1.000
    C10      C        0.20180    0.58380    0.59860    1.000
    C11      C        0.38200    0.18240    0.41620    1.000
    C12      C        0.54580    0.90830    0.54610    1.000
    C13      C        0.92800    0.57300    0.51130    1.000
    C14      C        0.68180    0.99330    0.47370    1.000
    C15      C        0.07200    0.42700    0.48870    1.000
    C16      C        0.35500    0.91570    0.57300    1.000
    C17      C        0.31820    0.00670    0.52630    1.000
    C18      C        0.15550    0.47370    0.53300    1.000
    C19      C        0.90810    0.45390    0.45440    1.000
    C20      C        0.68850    0.53300    0.99330    1.000
    C21      C        0.79820    0.41620    0.40140    1.000
    C22      C        0.61800    0.81760    0.58380    1.000
    C23      C        0.63750    0.54560    0.90830    1.000
    C24      C        0.36250    0.45440    0.09170    1.000
    S1       S        0.81897    0.66400    0.51329    1.000
    S2       S        0.84503    0.17729    0.33600    1.000
    S3       S        0.66774    0.48671    0.17729    1.000
    S4       S        0.15497    0.82271    0.66400    1.000
    S5       S        0.33226    0.51329    0.82271    1.000
    S6       S        0.18103    0.33600    0.48671    1.000
    O1       O        0.79817    0.83004    0.55763    1.000
    O2       O        0.23059    0.36929    0.26642    1.000
    O3       O        0.49701    0.26642    0.36429    1.000
    O4       O        0.86130    0.36429    0.36929    1.000
    O5       O        0.03187    0.38767    0.16996    1.000
    O6       O        0.96813    0.61233    0.83004    1.000
    O7       O        0.76941    0.63071    0.73358    1.000
    O8       O        0.13870    0.63571    0.63071    1.000
    O9       O        0.50299    0.73358    0.63571    1.000
    O10      O        0.64420    0.44237    0.38767    1.000
    O11      O        0.20183    0.16996    0.44237    1.000
    O12      O        0.35580    0.55763    0.61233    1.000
