# CIF file generated by openbabel 3.1.0, see https://openbabel.org
data_I
_chemical_name_common 'image0'
_cell_length_a 10.0144
_cell_length_b 10.126
_cell_length_c 20.4363
_cell_angle_alpha 90
_cell_angle_beta 90
_cell_angle_gamma 90
_space_group_name_H-M_alt 'P 1'
_space_group_name_Hall 'P 1'
loop_
    _symmetry_equiv_pos_as_xyz
    x,y,z
loop_
    _atom_site_label
    _atom_site_type_symbol
    _atom_site_fract_x
    _atom_site_fract_y
    _atom_site_fract_z
    _atom_site_occupancy
    C1       C        0.67180    0.02590    0.13500    1.000
    H1       H        0.63410    0.09100    0.10400    1.000
    H2       H        0.59650    0.98320    0.15820    1.000
    Ag1      Ag       0.00538    0.23204    0.27250    1.000
    Ag2      Ag       0.50964    0.23417    0.52165    1.000
    N1       N        0.58830    0.38290    0.44730    1.000
    C2       C        0.73100    0.54600    0.38030    1.000
    H3       H        0.76700    0.61540    0.40940    1.000
    H4       H        0.67500    0.58880    0.34640    1.000
    C3       C        0.65300    0.45480    0.41710    1.000
    N2       N        0.11230    0.06490    0.32030    1.000
    N3       N        0.42000    0.06900    0.45980    1.000
    C4       C        0.84360    0.47190    0.34840    1.000
    C5       C        0.29080    0.45710    0.11720    1.000
    H5       H        0.36890    0.48930    0.14220    1.000
    H6       H        0.32350    0.40330    0.08000    1.000
    C6       C        0.74570    0.92640    0.09870    1.000
    C7       C        0.29350    0.91860    0.37600    1.000
    H7       H        0.25160    0.84160    0.39770    1.000
    H8       H        0.35740    0.88580    0.34270    1.000
    C8       C        0.20350    0.37620    0.15990    1.000
    C9       C        0.36300    0.00020    0.42420    1.000
    C10      C        0.19070    0.00090    0.34470    1.000
    C11      C        0.75410    0.09370    0.18180    1.000
    C12      C        0.21210    0.56970    0.09280    1.000
    N4       N        0.13840    0.31240    0.19030    1.000
    N5       N        0.92390    0.41050    0.32500    1.000
    N6       N        0.82120    0.14740    0.21700    1.000
    N7       N        0.80960    0.85100    0.07230    1.000
    N8       N        0.15500    0.65850    0.07440    1.000
    C13      C        0.82820    0.97410    0.63500    1.000
    H9       H        0.86590    0.90900    0.60400    1.000
    H10      H        0.90350    0.01680    0.65820    1.000
    Ag3      Ag       0.49462    0.76796    0.77250    1.000
    Ag4      Ag       0.99036    0.76583    0.02165    1.000
    N9       N        0.91170    0.61710    0.94730    1.000
    C14      C        0.76900    0.45400    0.88030    1.000
    H11      H        0.73300    0.38460    0.90940    1.000
    H12      H        0.82500    0.41120    0.84640    1.000
    C15      C        0.84700    0.54520    0.91710    1.000
    N10      N        0.38770    0.93510    0.82030    1.000
    N11      N        0.08000    0.93100    0.95980    1.000
    C16      C        0.65640    0.52810    0.84840    1.000
    C17      C        0.20920    0.54290    0.61720    1.000
    H13      H        0.13110    0.51070    0.64220    1.000
    H14      H        0.17650    0.59670    0.58000    1.000
    C18      C        0.75430    0.07360    0.59870    1.000
    C19      C        0.20650    0.08140    0.87600    1.000
    H15      H        0.24840    0.15840    0.89770    1.000
    H16      H        0.14260    0.11420    0.84270    1.000
    C20      C        0.29650    0.62380    0.65990    1.000
    C21      C        0.13700    0.99980    0.92420    1.000
    C22      C        0.30930    0.99910    0.84470    1.000
    C23      C        0.74590    0.90630    0.68180    1.000
    C24      C        0.28790    0.43030    0.59280    1.000
    N12      N        0.36160    0.68760    0.69030    1.000
    N13      N        0.57610    0.58950    0.82500    1.000
    N14      N        0.67880    0.85260    0.71700    1.000
    N15      N        0.69040    0.14900    0.57230    1.000
    N16      N        0.34500    0.34150    0.57440    1.000
    C25      C        0.32820    0.52590    0.36500    1.000
    H17      H        0.36590    0.59100    0.39600    1.000
    H18      H        0.40350    0.48320    0.34180    1.000
    Ag5      Ag       0.99462    0.73204    0.22750    1.000
    Ag6      Ag       0.49036    0.73417    0.97835    1.000
    N17      N        0.41170    0.88290    0.05270    1.000
    C26      C        0.26900    0.04600    0.11970    1.000
    H19      H        0.23300    0.11540    0.09060    1.000
    H20      H        0.32500    0.08880    0.15360    1.000
    C27      C        0.34700    0.95480    0.08290    1.000
    N18      N        0.88770    0.56490    0.17970    1.000
    N19      N        0.58000    0.56900    0.04020    1.000
    C28      C        0.15640    0.97190    0.15160    1.000
    C29      C        0.70920    0.95710    0.38280    1.000
    H21      H        0.63110    0.98930    0.35780    1.000
    H22      H        0.67650    0.90330    0.42000    1.000
    C30      C        0.25430    0.42640    0.40130    1.000
    C31      C        0.70650    0.41860    0.12400    1.000
    H23      H        0.74840    0.34160    0.10230    1.000
    H24      H        0.64260    0.38580    0.15730    1.000
    C32      C        0.79650    0.87620    0.34010    1.000
    C33      C        0.63700    0.50020    0.07580    1.000
    C34      C        0.80930    0.50090    0.15530    1.000
    C35      C        0.24590    0.59370    0.31820    1.000
    C36      C        0.78790    0.06970    0.40720    1.000
    N20      N        0.86160    0.81240    0.30970    1.000
    N21      N        0.07610    0.91050    0.17500    1.000
    N22      N        0.17880    0.64740    0.28300    1.000
    N23      N        0.19040    0.35100    0.42770    1.000
    N24      N        0.84500    0.15850    0.42560    1.000
    C37      C        0.17180    0.47410    0.86500    1.000
    H25      H        0.13410    0.40900    0.89600    1.000
    H26      H        0.09650    0.51680    0.84180    1.000
    Ag7      Ag       0.50538    0.26796    0.72750    1.000
    Ag8      Ag       0.00964    0.26583    0.47835    1.000
    N25      N        0.08830    0.11710    0.55270    1.000
    C38      C        0.23100    0.95400    0.61970    1.000
    H27      H        0.26700    0.88460    0.59060    1.000
    H28      H        0.17500    0.91120    0.65360    1.000
    C39      C        0.15300    0.04520    0.58290    1.000
    N26      N        0.61230    0.43510    0.67970    1.000
    N27      N        0.92000    0.43100    0.54020    1.000
    C40      C        0.34360    0.02810    0.65160    1.000
    C41      C        0.79080    0.04290    0.88280    1.000
    H29      H        0.86890    0.01070    0.85780    1.000
    H30      H        0.82350    0.09670    0.92000    1.000
    C42      C        0.24570    0.57360    0.90130    1.000
    C43      C        0.79350    0.58140    0.62400    1.000
    H31      H        0.75160    0.65840    0.60230    1.000
    H32      H        0.85740    0.61420    0.65730    1.000
    C44      C        0.70350    0.12380    0.84010    1.000
    C45      C        0.86300    0.49980    0.57580    1.000
    C46      C        0.69070    0.49910    0.65530    1.000
    C47      C        0.25410    0.40630    0.81820    1.000
    C48      C        0.71210    0.93030    0.90720    1.000
    N28      N        0.63840    0.18760    0.80970    1.000
    N29      N        0.42390    0.08950    0.67500    1.000
    N30      N        0.32120    0.35260    0.78300    1.000
    N31      N        0.30960    0.64900    0.92770    1.000
    N32      N        0.65500    0.84150    0.92560    1.000
