# CIF file generated by openbabel 3.1.0, see https://openbabel.org
data_I
_chemical_name_common 'CAYYEG_clean'
_cell_length_a 9.3307
_cell_length_b 19.4814
_cell_length_c 19.4814
_cell_angle_alpha 62.4988
_cell_angle_beta 80.8133
_cell_angle_gamma 99.1867
_space_group_name_H-M_alt 'P 1'
_space_group_name_Hall 'P 1'
loop_
    _symmetry_equiv_pos_as_xyz
    x,y,z
loop_
    _atom_site_label
    _atom_site_type_symbol
    _atom_site_fract_x
    _atom_site_fract_y
    _atom_site_fract_z
    _atom_site_occupancy
    Mn1      Mn       0.00000    0.00000    0.50000    1.000
    H1       H        0.52430    0.77680    0.57940    1.000
    H2       H        0.43590    0.85230    0.64170    1.000
    H3       H        0.30350    0.88330    0.35320    1.000
    H4       H        0.04410    0.79700    0.40310    1.000
    H5       H        0.60920    0.99110    0.41930    1.000
    H6       H        0.82260    0.99620    0.34070    1.000
    H7       H        0.65180    0.05110    0.16190    1.000
    H8       H        0.42540    0.04530    0.23500    1.000
    H9       H        0.83730    0.68770    0.57640    1.000
    H10      H        0.73450    0.57390    0.57450    1.000
    H11      H        0.55820    0.69360    0.40380    1.000
    H12      H        0.65480    0.81100    0.40060    1.000
    H13      H        0.47570    0.22320    0.42060    1.000
    H14      H        0.56410    0.14770    0.35830    1.000
    H15      H        0.69650    0.11670    0.64680    1.000
    H16      H        0.95590    0.20300    0.59690    1.000
    H17      H        0.39080    0.00890    0.58070    1.000
    H18      H        0.17740    0.00380    0.65930    1.000
    H19      H        0.34820    0.94890    0.83810    1.000
    H20      H        0.57460    0.95470    0.76500    1.000
    H21      H        0.16270    0.31230    0.42360    1.000
    H22      H        0.26550    0.42610    0.42550    1.000
    H23      H        0.44180    0.30640    0.59620    1.000
    H24      H        0.34520    0.18900    0.59940    1.000
    C1       C        0.26645    0.13483    0.47168    1.000
    C2       C        0.58020    0.82380    0.57420    1.000
    C3       C        0.53130    0.86520    0.60870    1.000
    C4       C        0.65554    0.93349    0.58447    1.000
    C5       C        0.65698    0.98975    0.61151    1.000
    C6       C        0.78323    0.04939    0.59780    1.000
    C7       C        0.21960    0.88920    0.38070    1.000
    C8       C        0.07640    0.84150    0.40830    1.000
    C9       C        0.98398    0.87298    0.44704    1.000
    C10      C        0.17117    0.16070    0.51309    1.000
    C11      C        0.48923    0.01658    0.33759    1.000
    C12      C        0.61310    0.00290    0.36690    1.000
    C13      C        0.74170    0.00680    0.31890    1.000
    C14      C        0.64200    0.03830    0.21510    1.000
    C15      C        0.50460    0.03520    0.25850    1.000
    C16      C        0.24032    0.23620    0.51194    1.000
    C17      C        0.21900    0.30930    0.45970    1.000
    C18      C        0.28150    0.37790    0.46110    1.000
    C19      C        0.61560    0.69250    0.43900    1.000
    C20      C        0.67360    0.76380    0.43650    1.000
    C21      C        0.73355    0.86517    0.52832    1.000
    C22      C        0.41980    0.17620    0.42580    1.000
    C23      C        0.46870    0.13480    0.39130    1.000
    C24      C        0.34446    0.06651    0.41553    1.000
    C25      C        0.34302    0.01025    0.38849    1.000
    C26      C        0.21677    0.95061    0.40220    1.000
    C27      C        0.78040    0.11080    0.61930    1.000
    C28      C        0.92360    0.15850    0.59170    1.000
    C29      C        0.01602    0.12702    0.55296    1.000
    C30      C        0.82883    0.83930    0.48691    1.000
    C31      C        0.51077    0.98342    0.66241    1.000
    C32      C        0.38690    0.99710    0.63310    1.000
    C33      C        0.25830    0.99320    0.68110    1.000
    C34      C        0.35800    0.96170    0.78490    1.000
    C35      C        0.49540    0.96480    0.74150    1.000
    C36      C        0.75968    0.76380    0.48806    1.000
    C37      C        0.78100    0.69070    0.54030    1.000
    C38      C        0.71850    0.62210    0.53890    1.000
    C39      C        0.38440    0.30750    0.56100    1.000
    C40      C        0.32640    0.23620    0.56350    1.000
    N1       N        0.22436    0.06720    0.46552    1.000
    N2       N        0.92760    0.05994    0.55894    1.000
    N3       N        0.75830    0.02450    0.24390    1.000
    N4       N        0.36327    0.37752    0.51151    1.000
    N5       N        0.77564    0.93280    0.53448    1.000
    N6       N        0.07240    0.94006    0.44106    1.000
    N7       N        0.24170    0.97550    0.75610    1.000
    N8       N        0.63673    0.62248    0.48849    1.000
    Mn2      Mn       0.50000    0.50000    0.50000    1.000
    H25      H        0.10370    0.57940    0.64380    1.000
    H26      H        0.07760    0.64170    0.50600    1.000
    H27      H        0.65670    0.35320    0.76350    1.000
    H28      H        0.44720    0.40310    0.79990    1.000
    H29      H        0.02850    0.41930    0.58960    1.000
    H30      H        0.16330    0.34070    0.66310    1.000
    H31      H        0.81370    0.16190    0.78700    1.000
    H32      H        0.66040    0.23500    0.71970    1.000
    H33      H        0.41370    0.57640    0.73590    1.000
    H34      H        0.30900    0.57450    0.85160    1.000
    H35      H        0.96200    0.40380    0.90260    1.000
    H36      H        0.05540    0.40060    0.78840    1.000
    H37      H        0.89630    0.42060    0.35620    1.000
    H38      H        0.92240    0.35830    0.49400    1.000
    H39      H        0.34330    0.64680    0.23650    1.000
    H40      H        0.55280    0.59690    0.20010    1.000
    H41      H        0.97150    0.58070    0.41040    1.000
    H42      H        0.83670    0.65930    0.33690    1.000
    H43      H        0.18630    0.83810    0.21300    1.000
    H44      H        0.33960    0.76500    0.28030    1.000
    H45      H        0.58630    0.42360    0.26410    1.000
    H46      H        0.69100    0.42550    0.14840    1.000
    H47      H        0.03800    0.59620    0.09740    1.000
    H48      H        0.94460    0.59940    0.21160    1.000
    C41      C        0.73813    0.47168    0.39349    1.000
    C42      C        0.15440    0.57420    0.60200    1.000
    C43      C        0.14000    0.60870    0.52610    1.000
    C44      C        0.24001    0.58447    0.48204    1.000
    C45      C        0.26849    0.61151    0.39874    1.000
    C46      C        0.38103    0.59780    0.35281    1.000
    C47      C        0.60030    0.38070    0.73010    1.000
    C48      C        0.48470    0.40830    0.75020    1.000
    C49      C        0.43102    0.44704    0.67998    1.000
    C50      C        0.68426    0.51309    0.32621    1.000
    C51      C        0.82682    0.33759    0.64583    1.000
    C52      C        0.98000    0.36690    0.63020    1.000
    C53      C        0.06060    0.31890    0.67430    1.000
    C54      C        0.85710    0.21510    0.74660    1.000
    C55      C        0.76310    0.25850    0.70630    1.000
    C56      C        0.75226    0.51194    0.25186    1.000
    C57      C        0.67870    0.45970    0.23100    1.000
    C58      C        0.74260    0.46110    0.16100    1.000
    C59      C        0.05460    0.43900    0.86850    1.000
    C60      C        0.11010    0.43650    0.79970    1.000
    C61      C        0.26187    0.52832    0.60651    1.000
    C62      C        0.84560    0.42580    0.39800    1.000
    C63      C        0.86000    0.39130    0.47390    1.000
    C64      C        0.75999    0.41553    0.51796    1.000
    C65      C        0.73151    0.38849    0.60126    1.000
    C66      C        0.61897    0.40220    0.64719    1.000
    C67      C        0.39970    0.61930    0.26990    1.000
    C68      C        0.51530    0.59170    0.24980    1.000
    C69      C        0.56898    0.55296    0.32002    1.000
    C70      C        0.31574    0.48691    0.67379    1.000
    C71      C        0.17318    0.66241    0.35417    1.000
    C72      C        0.02000    0.63310    0.36980    1.000
    C73      C        0.93940    0.68110    0.32570    1.000
    C74      C        0.14290    0.78490    0.25340    1.000
    C75      C        0.23690    0.74150    0.29370    1.000
    C76      C        0.24774    0.48806    0.74814    1.000
    C77      C        0.32130    0.54030    0.76900    1.000
    C78      C        0.25740    0.53890    0.83900    1.000
    C79      C        0.94540    0.56100    0.13150    1.000
    C80      C        0.88990    0.56350    0.20030    1.000
    N9       N        0.68988    0.46552    0.46728    1.000
    N10      N        0.48654    0.55894    0.38112    1.000
    N11      N        0.00220    0.24390    0.73160    1.000
    N12      N        0.87478    0.51151    0.11097    1.000
    N13      N        0.31012    0.53448    0.53272    1.000
    N14      N        0.51346    0.44106    0.61888    1.000
    N15      N        0.99780    0.75610    0.26840    1.000
    N16      N        0.12522    0.48849    0.88903    1.000
    Mn3      Mn       0.00000    0.50000    0.00000    1.000
    H49      H        0.74750    0.64380    0.77680    1.000
    H50      H        0.58360    0.50600    0.85230    1.000
    H51      H        0.42020    0.76350    0.88330    1.000
    H52      H        0.24710    0.79990    0.79700    1.000
    H53      H        0.61810    0.58960    0.99110    1.000
    H54      H        0.82640    0.66310    0.99620    1.000
    H55      H        0.60070    0.78700    0.05110    1.000
    H56      H        0.38010    0.71970    0.04530    1.000
    H57      H        0.14960    0.73590    0.68770    1.000
    H58      H        0.16060    0.85160    0.57390    1.000
    H59      H        0.86460    0.90260    0.69360    1.000
    H60      H        0.84380    0.78840    0.81100    1.000
    H61      H        0.25250    0.35620    0.22320    1.000
    H62      H        0.41640    0.49400    0.14770    1.000
    H63      H        0.57980    0.23650    0.11670    1.000
    H64      H        0.75290    0.20010    0.20300    1.000
    H65      H        0.38190    0.41040    0.00890    1.000
    H66      H        0.17360    0.33690    0.00380    1.000
    H67      H        0.39930    0.21300    0.94890    1.000
    H68      H        0.61990    0.28030    0.95470    1.000
    H69      H        0.85040    0.26410    0.31230    1.000
    H70      H        0.83940    0.14840    0.42610    1.000
    H71      H        0.13540    0.09740    0.30640    1.000
    H72      H        0.15620    0.21160    0.18900    1.000
    C81      C        0.13162    0.39349    0.13483    1.000
    C82      C        0.75640    0.60200    0.82380    1.000
    C83      C        0.66610    0.52610    0.86520    1.000
    C84      C        0.72205    0.48204    0.93349    1.000
    C85      C        0.66723    0.39874    0.98975    1.000
    C86      C        0.73384    0.35281    0.04939    1.000
    C87      C        0.33040    0.73010    0.88920    1.000
    C88      C        0.23490    0.75020    0.84150    1.000
    C89      C        0.11100    0.67998    0.87298    1.000
    C90      C        0.01047    0.32621    0.16070    1.000
    C91      C        0.47265    0.64583    0.01658    1.000
    C92      C        0.61020    0.63020    0.00290    1.000
    C93      C        0.73490    0.67430    0.00680    1.000
    C94      C        0.60370    0.74660    0.03830    1.000
    C95      C        0.46940    0.70630    0.03520    1.000
    C96      C        0.00412    0.25186    0.23620    1.000
    C97      C        0.90970    0.23100    0.30930    1.000
    C98      C        0.90360    0.16100    0.37790    1.000
    C99      C        0.92310    0.86850    0.69250    1.000
    C100     C        0.90980    0.79970    0.76380    1.000
    C101     C        0.86838    0.60651    0.86517    1.000
    C102     C        0.24360    0.39800    0.17620    1.000
    C103     C        0.33390    0.47390    0.13480    1.000
    C104     C        0.27795    0.51796    0.06651    1.000
    C105     C        0.33277    0.60126    0.01025    1.000
    C106     C        0.26616    0.64719    0.95061    1.000
    C107     C        0.66960    0.26990    0.11080    1.000
    C108     C        0.76510    0.24980    0.15850    1.000
    C109     C        0.88900    0.32002    0.12702    1.000
    C110     C        0.98953    0.67379    0.83930    1.000
    C111     C        0.52735    0.35417    0.98342    1.000
    C112     C        0.38980    0.36980    0.99710    1.000
    C113     C        0.26510    0.32570    0.99320    1.000
    C114     C        0.39630    0.25340    0.96170    1.000
    C115     C        0.53060    0.29370    0.96480    1.000
    C116     C        0.99588    0.74814    0.76380    1.000
    C117     C        0.09030    0.76900    0.69070    1.000
    C118     C        0.09640    0.83900    0.62210    1.000
    C119     C        0.07690    0.13150    0.30750    1.000
    C120     C        0.09020    0.20030    0.23620    1.000
    N17      N        0.15716    0.46728    0.06720    1.000
    N18      N        0.86766    0.38112    0.05994    1.000
    N19      N        0.73380    0.73160    0.02450    1.000
    N20      N        0.98575    0.11097    0.37752    1.000
    N21      N        0.84284    0.53272    0.93280    1.000
    N22      N        0.13234    0.61888    0.94006    1.000
    N23      N        0.26620    0.26840    0.97550    1.000
    N24      N        0.01425    0.88903    0.62248    1.000
