# CIF file generated by openbabel 3.1.0, see https://openbabel.org
data_I
_chemical_name_common 'image0'
_cell_length_a 14.3807
_cell_length_b 14.3807
_cell_length_c 14.3552
_cell_angle_alpha 90
_cell_angle_beta 90
_cell_angle_gamma 120
_space_group_name_H-M_alt 'P 1'
_space_group_name_Hall 'P 1'
loop_
    _symmetry_equiv_pos_as_xyz
    x,y,z
loop_
    _atom_site_label
    _atom_site_type_symbol
    _atom_site_fract_x
    _atom_site_fract_y
    _atom_site_fract_z
    _atom_site_occupancy
    Zn1      Zn       0.58507    0.25785    0.83541    1.000
    P1       P        0.53270    0.22012    0.61950    1.000
    P2       P        0.36435    0.20870    0.75924    1.000
    O1       O        0.46490    0.10360    0.59320    1.000
    O2       O        0.60280    0.23720    0.70360    1.000
    O3       O        0.44810    0.25160    0.83680    1.000
    O4       O        0.28360    0.24280    0.77190    1.000
    O5       O        0.31340    0.08830    0.74710    1.000
    C1       C        0.43990    0.27090    0.65070    1.000
    O6       O        0.36720    0.24790    0.57390    1.000
    H1       H        0.30600    0.22390    0.59380    1.000
    C2       C        0.50680    0.39210    0.65820    1.000
    H2       H        0.56100    0.40920    0.70570    1.000
    H3       H        0.54400    0.41950    0.59950    1.000
    N1       N        0.45020    0.44900    0.68010    1.000
    C3       C        0.46860    0.51090    0.75580    1.000
    H4       H        0.51650    0.52040    0.80330    1.000
    C4       C        0.37520    0.45220    0.62660    1.000
    H5       H        0.34690    0.41540    0.57110    1.000
    C5       C        0.34890    0.52100    0.67050    1.000
    H6       H        0.30000    0.54070    0.64940    1.000
    N2       N        0.40870    0.55570    0.75250    1.000
    O7       O        0.59550    0.28570    0.53720    1.000
    Zn2      Zn       0.74215    0.32722    0.50208    1.000
    P3       P        0.77988    0.31258    0.28617    1.000
    P4       P        0.79130    0.15565    0.42591    1.000
    O8       O        0.89640    0.36130    0.25987    1.000
    O9       O        0.76280    0.36560    0.37027    1.000
    O10      O        0.74840    0.19650    0.50347    1.000
    O11      O        0.75720    0.04080    0.43857    1.000
    O12      O        0.91170    0.22510    0.41377    1.000
    C6       C        0.72910    0.16900    0.31737    1.000
    O13      O        0.75210    0.11930    0.24057    1.000
    H7       H        0.77610    0.08210    0.26047    1.000
    C7       C        0.60790    0.11470    0.32487    1.000
    H8       H        0.59080    0.15180    0.37237    1.000
    H9       H        0.58050    0.12450    0.26617    1.000
    N3       N        0.55100    0.00120    0.34677    1.000
    C8       C        0.48910    0.95770    0.42247    1.000
    H10      H        0.47960    0.99610    0.46997    1.000
    C9       C        0.54780    0.92300    0.29327    1.000
    H11      H        0.58460    0.93150    0.23777    1.000
    C10      C        0.47900    0.82790    0.33717    1.000
    H12      H        0.45930    0.75930    0.31607    1.000
    N4       N        0.44430    0.85300    0.41917    1.000
    O14      O        0.71430    0.30980    0.20387    1.000
    Zn3      Zn       0.67278    0.41493    0.16874    1.000
    P5       P        0.68742    0.46730    0.95283    1.000
    P6       P        0.84435    0.63565    0.09257    1.000
    O15      O        0.63870    0.53510    0.92653    1.000
    O16      O        0.63440    0.39720    0.03693    1.000
    O17      O        0.80350    0.55190    0.17013    1.000
    O18      O        0.95920    0.71640    0.10523    1.000
    O19      O        0.77490    0.68660    0.08043    1.000
    C11      C        0.83100    0.56010    0.98403    1.000
    O20      O        0.88070    0.63280    0.90723    1.000
    H13      H        0.91790    0.69400    0.92713    1.000
    C12      C        0.88530    0.49320    0.99153    1.000
    H14      H        0.84820    0.43900    0.03903    1.000
    H15      H        0.87550    0.45600    0.93283    1.000
    N5       N        0.99880    0.54980    0.01343    1.000
    C13      C        0.04230    0.53140    0.08913    1.000
    H16      H        0.00390    0.48350    0.13663    1.000
    C14      C        0.07700    0.62480    0.95993    1.000
    H17      H        0.06850    0.65310    0.90443    1.000
    C15      C        0.17210    0.65110    0.00383    1.000
    H18      H        0.24070    0.70000    0.98273    1.000
    N6       N        0.14700    0.59130    0.08583    1.000
    O21      O        0.69020    0.40450    0.87053    1.000
    Zn4      Zn       0.25785    0.58507    0.16459    1.000
    P7       P        0.22012    0.53270    0.38050    1.000
    P8       P        0.20870    0.36435    0.24076    1.000
    O22      O        0.10360    0.46490    0.40680    1.000
    O23      O        0.23720    0.60280    0.29640    1.000
    O24      O        0.25160    0.44810    0.16320    1.000
    O25      O        0.24280    0.28360    0.22810    1.000
    O26      O        0.08830    0.31340    0.25290    1.000
    C16      C        0.27090    0.43990    0.34930    1.000
    O27      O        0.24790    0.36720    0.42610    1.000
    H19      H        0.22390    0.30600    0.40620    1.000
    C17      C        0.39210    0.50680    0.34180    1.000
    H20      H        0.40920    0.56100    0.29430    1.000
    H21      H        0.41950    0.54400    0.40050    1.000
    N7       N        0.44900    0.45020    0.31990    1.000
    C18      C        0.51090    0.46860    0.24420    1.000
    H22      H        0.52040    0.51650    0.19670    1.000
    C19      C        0.45220    0.37520    0.37340    1.000
    H23      H        0.41540    0.34690    0.42890    1.000
    C20      C        0.52100    0.34890    0.32950    1.000
    H24      H        0.54070    0.30000    0.35060    1.000
    N8       N        0.55570    0.40870    0.24750    1.000
    O28      O        0.28570    0.59550    0.46280    1.000
    Zn5      Zn       0.32722    0.74215    0.49792    1.000
    P9       P        0.31258    0.77988    0.71383    1.000
    P10      P        0.15565    0.79130    0.57409    1.000
    O29      O        0.36130    0.89640    0.74013    1.000
    O30      O        0.36560    0.76280    0.62973    1.000
    O31      O        0.19650    0.74840    0.49653    1.000
    O32      O        0.04080    0.75720    0.56143    1.000
    O33      O        0.22510    0.91170    0.58623    1.000
    C21      C        0.16900    0.72910    0.68263    1.000
    O34      O        0.11930    0.75210    0.75943    1.000
    H25      H        0.08210    0.77610    0.73953    1.000
    C22      C        0.11470    0.60790    0.67513    1.000
    H26      H        0.15180    0.59080    0.62763    1.000
    H27      H        0.12450    0.58050    0.73383    1.000
    N9       N        0.00120    0.55100    0.65323    1.000
    C23      C        0.95770    0.48910    0.57753    1.000
    H28      H        0.99610    0.47960    0.53003    1.000
    C24      C        0.92300    0.54780    0.70673    1.000
    H29      H        0.93150    0.58460    0.76223    1.000
    C25      C        0.82790    0.47900    0.66283    1.000
    H30      H        0.75930    0.45930    0.68393    1.000
    N10      N        0.85300    0.44430    0.58083    1.000
    O35      O        0.30980    0.71430    0.79613    1.000
    Zn6      Zn       0.41493    0.67278    0.83126    1.000
    P11      P        0.46730    0.68742    0.04717    1.000
    P12      P        0.63565    0.84435    0.90743    1.000
    O36      O        0.53510    0.63870    0.07347    1.000
    O37      O        0.39720    0.63440    0.96307    1.000
    O38      O        0.55190    0.80350    0.82987    1.000
    O39      O        0.71640    0.95920    0.89477    1.000
    O40      O        0.68660    0.77490    0.91957    1.000
    C26      C        0.56010    0.83100    0.01597    1.000
    O41      O        0.63280    0.88070    0.09277    1.000
    H31      H        0.69400    0.91790    0.07287    1.000
    C27      C        0.49320    0.88530    0.00847    1.000
    H32      H        0.43900    0.84820    0.96097    1.000
    H33      H        0.45600    0.87550    0.06717    1.000
    N11      N        0.54980    0.99880    0.98657    1.000
    C28      C        0.53140    0.04230    0.91087    1.000
    H34      H        0.48350    0.00390    0.86337    1.000
    C29      C        0.62480    0.07700    0.04007    1.000
    H35      H        0.65310    0.06850    0.09557    1.000
    C30      C        0.65110    0.17210    0.99617    1.000
    H36      H        0.70000    0.24070    0.01727    1.000
    N12      N        0.59130    0.14700    0.91417    1.000
    O42      O        0.40450    0.69020    0.12947    1.000
    Zn7      Zn       0.34366    0.00000    0.66667    1.000
    Zn8      Zn       0.00000    0.34366    0.33333    1.000
    Zn9      Zn       0.65634    0.65634    0.00000    1.000
