# CIF file generated by openbabel 3.1.0, see https://openbabel.org
data_I
_chemical_name_common 'image0'
_cell_length_a 13.462
_cell_length_b 8.767
_cell_length_c 15.125
_cell_angle_alpha 90
_cell_angle_beta 111.93
_cell_angle_gamma 90
_space_group_name_H-M_alt 'P 1'
_space_group_name_Hall 'P 1'
loop_
    _symmetry_equiv_pos_as_xyz
    x,y,z
loop_
    _atom_site_label
    _atom_site_type_symbol
    _atom_site_fract_x
    _atom_site_fract_y
    _atom_site_fract_z
    _atom_site_occupancy
    C1       C        0.16530    0.08150    0.92510    1.000
    C2       C        0.16550    0.40300    0.90960    1.000
    C3       C        0.33740    0.23200    0.92280    1.000
    N1       N        0.11970    0.97550    0.88510    1.000
    N2       N        0.11900    0.49480    0.85520    1.000
    N3       N        0.38670    0.21660    0.87570    1.000
    C4       C        0.66530    0.58150    0.92510    1.000
    C5       C        0.66550    0.90300    0.90960    1.000
    C6       C        0.83740    0.73200    0.92280    1.000
    N4       N        0.61970    0.47550    0.88510    1.000
    N5       N        0.61900    0.99480    0.85520    1.000
    N6       N        0.88670    0.71660    0.87570    1.000
    C7       C        0.83470    0.08150    0.57490    1.000
    C8       C        0.83450    0.40300    0.59040    1.000
    C9       C        0.66260    0.23200    0.57720    1.000
    N7       N        0.88030    0.97550    0.61490    1.000
    N8       N        0.88100    0.49480    0.64480    1.000
    N9       N        0.61330    0.21660    0.62430    1.000
    C10      C        0.33470    0.58150    0.57490    1.000
    C11      C        0.33450    0.90300    0.59040    1.000
    C12      C        0.16260    0.73200    0.57720    1.000
    N10      N        0.38030    0.47550    0.61490    1.000
    N11      N        0.38100    0.99480    0.64480    1.000
    N12      N        0.11330    0.71660    0.62430    1.000
    C13      C        0.83470    0.91850    0.07490    1.000
    C14      C        0.83450    0.59700    0.09040    1.000
    C15      C        0.66260    0.76800    0.07720    1.000
    N13      N        0.88030    0.02450    0.11490    1.000
    N14      N        0.88100    0.50520    0.14480    1.000
    N15      N        0.61330    0.78340    0.12430    1.000
    C16      C        0.33470    0.41850    0.07490    1.000
    C17      C        0.33450    0.09700    0.09040    1.000
    C18      C        0.16260    0.26800    0.07720    1.000
    N16      N        0.38030    0.52450    0.11490    1.000
    N17      N        0.38100    0.00520    0.14480    1.000
    N18      N        0.11330    0.28340    0.12430    1.000
    C19      C        0.16530    0.91850    0.42510    1.000
    C20      C        0.16550    0.59700    0.40960    1.000
    C21      C        0.33740    0.76800    0.42280    1.000
    N19      N        0.11970    0.02450    0.38510    1.000
    N20      N        0.11900    0.50520    0.35520    1.000
    N21      N        0.38670    0.78340    0.37570    1.000
    C22      C        0.66530    0.41850    0.42510    1.000
    C23      C        0.66550    0.09700    0.40960    1.000
    C24      C        0.83740    0.26800    0.42280    1.000
    N22      N        0.61970    0.52450    0.38510    1.000
    N23      N        0.61900    0.00520    0.35520    1.000
    N24      N        0.88670    0.28340    0.37570    1.000
    Fe1      Fe       0.25000    0.25000    0.00000    1.000
    Fe2      Fe       0.75000    0.25000    0.50000    1.000
    Fe3      Fe       0.75000    0.75000    0.00000    1.000
    Fe4      Fe       0.25000    0.75000    0.50000    1.000
    K1       K        0.00000    0.75156    0.75000    1.000
    K2       K        0.50000    0.25156    0.75000    1.000
    K3       K        0.00000    0.24844    0.25000    1.000
    K4       K        0.50000    0.74844    0.25000    1.000
