# CIF file generated by openbabel 3.1.0, see https://openbabel.org
data_I
_chemical_name_common 'image0'
_cell_length_a 18.0725
_cell_length_b 18.0725
_cell_length_c 17.1854
_cell_angle_alpha 90
_cell_angle_beta 90
_cell_angle_gamma 90
_space_group_name_H-M_alt 'P 1'
_space_group_name_Hall 'P 1'
loop_
    _symmetry_equiv_pos_as_xyz
    x,y,z
loop_
    _atom_site_label
    _atom_site_type_symbol
    _atom_site_fract_x
    _atom_site_fract_y
    _atom_site_fract_z
    _atom_site_occupancy
    C1       C        0.71650    0.00670    0.49030    1.000
    H1       H        0.74370    0.00740    0.44300    1.000
    C2       C        0.70190    0.07340    0.53000    1.000
    C3       C        0.66140    0.07230    0.60020    1.000
    H2       H        0.65160    0.11730    0.62700    1.000
    C4       C        0.63570    0.00460    0.63070    1.000
    C5       C        0.65030    0.93800    0.59090    1.000
    H3       H        0.63290    0.89240    0.61150    1.000
    C6       C        0.69070    0.93900    0.52080    1.000
    C7       C        0.45460    0.94170    0.99860    1.000
    C8       C        0.45940    0.89100    0.06150    1.000
    C9       C        0.49330    0.84630    0.18190    1.000
    C10      C        0.56070    0.82980    0.21940    1.000
    H4       H        0.60630    0.84470    0.19660    1.000
    C11      C        0.56050    0.79140    0.29070    1.000
    C12      C        0.49300    0.76940    0.32460    1.000
    H5       H        0.49290    0.74340    0.37270    1.000
    C13      C        0.42560    0.78580    0.28710    1.000
    C14      C        0.42580    0.82430    0.21570    1.000
    H6       H        0.38030    0.83540    0.19040    1.000
    O1       O        0.69500    0.95820    0.91690    1.000
    C15      C        0.53570    0.93160    0.94590    1.000
    C16      C        0.53310    0.98150    0.00900    1.000
    C17      C        0.51820    0.95520    0.08460    1.000
    C18      C        0.50580    0.87910    0.09720    1.000
    C19      C        0.50840    0.82930    0.03410    1.000
    C20      C        0.52340    0.85550    0.95850    1.000
    C21      C        0.48100    0.92060    0.13280    1.000
    C22      C        0.51000    0.00380    0.14650    1.000
    C23      C        0.61530    0.99300    0.71970    1.000
    C24      C        0.53920    0.98820    0.73690    1.000
    C25      C        0.51570    0.97380    0.81360    1.000
    C26      C        0.56840    0.96430    0.87330    1.000
    C27      C        0.64460    0.96910    0.85620    1.000
    C28      C        0.66800    0.98350    0.77940    1.000
    C29      C        0.57670    0.00650    0.68100    1.000
    C30      C        0.60510    0.02500    0.75500    1.000
    C31      C        0.56100    0.03800    0.82100    1.000
    Cu1      Cu       0.70590    0.71670    0.45951    1.000
    Cu2      Cu       0.78270    0.79240    0.35572    1.000
    C32      C        0.35660    0.77010    0.33370    1.000
    C33      C        0.63090    0.77260    0.32960    1.000
    O2       O        0.75580    0.86790    0.42660    1.000
    C34      C        0.71240    0.86770    0.48400    1.000
    O3       O        0.68900    0.80560    0.51140    1.000
    O4       O        0.77070    0.13130    0.42980    1.000
    C35      C        0.72910    0.14340    0.49320    1.000
    O5       O        0.71130    0.20660    0.51760    1.000
    O6       O        0.69110    0.80410    0.31140    1.000
    O7       O        0.29820    0.79270    0.30040    1.000
    O8       O        0.36550    0.73960    0.40210    1.000
    O9       O        0.62380    0.73620    0.39690    1.000
    O10      O        0.52700    0.80980    0.89450    1.000
    C36      C        0.28350    0.99330    0.49030    1.000
    H7       H        0.25630    0.99260    0.44300    1.000
    C37      C        0.29810    0.92660    0.53000    1.000
    C38      C        0.33860    0.92770    0.60020    1.000
    H8       H        0.34840    0.88270    0.62700    1.000
    C39      C        0.36430    0.99540    0.63070    1.000
    C40      C        0.34970    0.06200    0.59090    1.000
    H9       H        0.36710    0.10760    0.61150    1.000
    C41      C        0.30930    0.06100    0.52080    1.000
    C42      C        0.54540    0.05830    0.99860    1.000
    C43      C        0.54060    0.10900    0.06150    1.000
    C44      C        0.50670    0.15370    0.18190    1.000
    C45      C        0.43930    0.17020    0.21940    1.000
    H10      H        0.39370    0.15530    0.19660    1.000
    C46      C        0.43950    0.20860    0.29070    1.000
    C47      C        0.50700    0.23060    0.32460    1.000
    H11      H        0.50710    0.25660    0.37270    1.000
    C48      C        0.57440    0.21420    0.28710    1.000
    C49      C        0.57420    0.17570    0.21570    1.000
    H12      H        0.61970    0.16460    0.19040    1.000
    O11      O        0.30500    0.04180    0.91690    1.000
    C50      C        0.46430    0.06840    0.94590    1.000
    C51      C        0.46690    0.01850    0.00900    1.000
    C52      C        0.48180    0.04480    0.08460    1.000
    C53      C        0.49420    0.12090    0.09720    1.000
    C54      C        0.49160    0.17070    0.03410    1.000
    C55      C        0.47660    0.14450    0.95850    1.000
    C56      C        0.51900    0.07940    0.13280    1.000
    C57      C        0.49000    0.99620    0.14650    1.000
    C58      C        0.38470    0.00700    0.71970    1.000
    C59      C        0.46080    0.01180    0.73690    1.000
    C60      C        0.48430    0.02620    0.81360    1.000
    C61      C        0.43160    0.03570    0.87330    1.000
    C62      C        0.35540    0.03090    0.85620    1.000
    C63      C        0.33200    0.01650    0.77940    1.000
    C64      C        0.42330    0.99350    0.68100    1.000
    C65      C        0.39490    0.97500    0.75500    1.000
    C66      C        0.43900    0.96200    0.82100    1.000
    Cu3      Cu       0.29410    0.28330    0.45951    1.000
    Cu4      Cu       0.21730    0.20760    0.35572    1.000
    C67      C        0.64340    0.22990    0.33370    1.000
    C68      C        0.36910    0.22740    0.32960    1.000
    O12      O        0.24420    0.13210    0.42660    1.000
    C69      C        0.28760    0.13230    0.48400    1.000
    O13      O        0.31100    0.19440    0.51140    1.000
    O14      O        0.22930    0.86870    0.42980    1.000
    C70      C        0.27090    0.85660    0.49320    1.000
    O15      O        0.28870    0.79340    0.51760    1.000
    O16      O        0.30890    0.19590    0.31140    1.000
    O17      O        0.70180    0.20730    0.30040    1.000
    O18      O        0.63450    0.26040    0.40210    1.000
    O19      O        0.37620    0.26380    0.39690    1.000
    O20      O        0.47300    0.19020    0.89450    1.000
    C71      C        0.99330    0.71650    0.49030    1.000
    H13      H        0.99260    0.74370    0.44300    1.000
    C72      C        0.92660    0.70190    0.53000    1.000
    C73      C        0.92770    0.66140    0.60020    1.000
    H14      H        0.88270    0.65160    0.62700    1.000
    C74      C        0.99540    0.63570    0.63070    1.000
    C75      C        0.06200    0.65030    0.59090    1.000
    H15      H        0.10760    0.63290    0.61150    1.000
    C76      C        0.06100    0.69070    0.52080    1.000
    C77      C        0.05830    0.45460    0.99860    1.000
    C78      C        0.10900    0.45940    0.06150    1.000
    C79      C        0.15370    0.49330    0.18190    1.000
    C80      C        0.17020    0.56070    0.21940    1.000
    H16      H        0.15530    0.60630    0.19660    1.000
    C81      C        0.20860    0.56050    0.29070    1.000
    C82      C        0.23060    0.49300    0.32460    1.000
    H17      H        0.25660    0.49290    0.37270    1.000
    C83      C        0.21420    0.42560    0.28710    1.000
    C84      C        0.17570    0.42580    0.21570    1.000
    H18      H        0.16460    0.38030    0.19040    1.000
    O21      O        0.04180    0.69500    0.91690    1.000
    C85      C        0.06840    0.53570    0.94590    1.000
    C86      C        0.01850    0.53310    0.00900    1.000
    C87      C        0.04480    0.51820    0.08460    1.000
    C88      C        0.12090    0.50580    0.09720    1.000
    C89      C        0.17070    0.50840    0.03410    1.000
    C90      C        0.14450    0.52340    0.95850    1.000
    C91      C        0.07940    0.48100    0.13280    1.000
    C92      C        0.99620    0.51000    0.14650    1.000
    C93      C        0.00700    0.61530    0.71970    1.000
    C94      C        0.01180    0.53920    0.73690    1.000
    C95      C        0.02620    0.51570    0.81360    1.000
    C96      C        0.03570    0.56840    0.87330    1.000
    C97      C        0.03090    0.64460    0.85620    1.000
    C98      C        0.01650    0.66800    0.77940    1.000
    C99      C        0.99350    0.57670    0.68100    1.000
    C100     C        0.97500    0.60510    0.75500    1.000
    C101     C        0.96200    0.56100    0.82100    1.000
    Cu5      Cu       0.28330    0.70590    0.45951    1.000
    Cu6      Cu       0.20760    0.78270    0.35572    1.000
    C102     C        0.22990    0.35660    0.33370    1.000
    C103     C        0.22740    0.63090    0.32960    1.000
    O22      O        0.13210    0.75580    0.42660    1.000
    C104     C        0.13230    0.71240    0.48400    1.000
    O23      O        0.19440    0.68900    0.51140    1.000
    O24      O        0.86870    0.77070    0.42980    1.000
    C105     C        0.85660    0.72910    0.49320    1.000
    O25      O        0.79340    0.71130    0.51760    1.000
    O26      O        0.19590    0.69110    0.31140    1.000
    O27      O        0.20730    0.29820    0.30040    1.000
    O28      O        0.26040    0.36550    0.40210    1.000
    O29      O        0.26380    0.62380    0.39690    1.000
    O30      O        0.19020    0.52700    0.89450    1.000
    C106     C        0.00670    0.28350    0.49030    1.000
    H19      H        0.00740    0.25630    0.44300    1.000
    C107     C        0.07340    0.29810    0.53000    1.000
    C108     C        0.07230    0.33860    0.60020    1.000
    H20      H        0.11730    0.34840    0.62700    1.000
    C109     C        0.00460    0.36430    0.63070    1.000
    C110     C        0.93800    0.34970    0.59090    1.000
    H21      H        0.89240    0.36710    0.61150    1.000
    C111     C        0.93900    0.30930    0.52080    1.000
    C112     C        0.94170    0.54540    0.99860    1.000
    C113     C        0.89100    0.54060    0.06150    1.000
    C114     C        0.84630    0.50670    0.18190    1.000
    C115     C        0.82980    0.43930    0.21940    1.000
    H22      H        0.84470    0.39370    0.19660    1.000
    C116     C        0.79140    0.43950    0.29070    1.000
    C117     C        0.76940    0.50700    0.32460    1.000
    H23      H        0.74340    0.50710    0.37270    1.000
    C118     C        0.78580    0.57440    0.28710    1.000
    C119     C        0.82430    0.57420    0.21570    1.000
    H24      H        0.83540    0.61970    0.19040    1.000
    O31      O        0.95820    0.30500    0.91690    1.000
    C120     C        0.93160    0.46430    0.94590    1.000
    C121     C        0.98150    0.46690    0.00900    1.000
    C122     C        0.95520    0.48180    0.08460    1.000
    C123     C        0.87910    0.49420    0.09720    1.000
    C124     C        0.82930    0.49160    0.03410    1.000
    C125     C        0.85550    0.47660    0.95850    1.000
    C126     C        0.92060    0.51900    0.13280    1.000
    C127     C        0.00380    0.49000    0.14650    1.000
    C128     C        0.99300    0.38470    0.71970    1.000
    C129     C        0.98820    0.46080    0.73690    1.000
    C130     C        0.97380    0.48430    0.81360    1.000
    C131     C        0.96430    0.43160    0.87330    1.000
    C132     C        0.96910    0.35540    0.85620    1.000
    C133     C        0.98350    0.33200    0.77940    1.000
    C134     C        0.00650    0.42330    0.68100    1.000
    C135     C        0.02500    0.39490    0.75500    1.000
    C136     C        0.03800    0.43900    0.82100    1.000
    Cu7      Cu       0.71670    0.29410    0.45951    1.000
    Cu8      Cu       0.79240    0.21730    0.35572    1.000
    C137     C        0.77010    0.64340    0.33370    1.000
    C138     C        0.77260    0.36910    0.32960    1.000
    O32      O        0.86790    0.24420    0.42660    1.000
    C139     C        0.86770    0.28760    0.48400    1.000
    O33      O        0.80560    0.31100    0.51140    1.000
    O34      O        0.13130    0.22930    0.42980    1.000
    C140     C        0.14340    0.27090    0.49320    1.000
    O35      O        0.20660    0.28870    0.51760    1.000
    O36      O        0.80410    0.30890    0.31140    1.000
    O37      O        0.79270    0.70180    0.30040    1.000
    O38      O        0.73960    0.63450    0.40210    1.000
    O39      O        0.73620    0.37620    0.39690    1.000
    O40      O        0.80980    0.47300    0.89450    1.000
    C141     C        0.50000    0.00000    0.67070    1.000
    C142     C        0.00000    0.50000    0.67070    1.000
