# CIF file generated by openbabel 3.1.0, see https://openbabel.org
data_I
_chemical_name_common 'image0'
_cell_length_a 7.59
_cell_length_b 7.59
_cell_length_c 7.725
_cell_angle_alpha 90
_cell_angle_beta 90
_cell_angle_gamma 90
_space_group_name_H-M_alt 'P 1'
_space_group_name_Hall 'P 1'
loop_
    _symmetry_equiv_pos_as_xyz
    x,y,z
loop_
    _atom_site_label
    _atom_site_type_symbol
    _atom_site_fract_x
    _atom_site_fract_y
    _atom_site_fract_z
    _atom_site_occupancy
    Cd1      Cd       0.00000    0.00000    0.00000    1.000
    Ni1      Ni       0.50000    0.50000    0.00000    1.000
    N1       N        0.22100    0.22100    0.00000    1.000
    C1       C        0.32790    0.32790    0.00000    1.000
    N2       N        0.77900    0.77900    0.00000    1.000
    C2       C        0.67210    0.67210    0.00000    1.000
    N3       N        0.77900    0.22100    0.00000    1.000
    C3       C        0.67210    0.32790    0.00000    1.000
    N4       N        0.22100    0.77900    0.00000    1.000
    C4       C        0.32790    0.67210    0.00000    1.000
    N5       N        0.03300    0.00000    0.29900    1.000
    C5       C        0.89200    0.00000    0.40200    1.000
    N6       N        0.96700    0.00000    0.29900    1.000
    C6       C        0.10800    0.00000    0.40200    1.000
    N7       N        0.00000    0.03300    0.29900    1.000
    C7       C        0.00000    0.89200    0.40200    1.000
    N8       N        0.00000    0.96700    0.29900    1.000
    C8       C        0.00000    0.10800    0.40200    1.000
    N9       N        0.96700    0.00000    0.70100    1.000
    C9       C        0.10800    0.00000    0.59800    1.000
    N10      N        0.03300    0.00000    0.70100    1.000
    C10      C        0.89200    0.00000    0.59800    1.000
    N11      N        0.00000    0.03300    0.70100    1.000
    C11      C        0.00000    0.89200    0.59800    1.000
    N12      N        0.00000    0.96700    0.70100    1.000
    C12      C        0.00000    0.10800    0.59800    1.000
